
-------------------------------------------------------------------------
|    ___ _   _ ___                                                      |
|   / __| | | |_  )   Release 8.0.1 "Harrier"                           |
|   \__ \ |_| |/ /                                                      |
|   |___/\___//___|   Suite (Computational Fluid Dynamics Code)         |
|                                                                       |
-------------------------------------------------------------------------
| SU2 Project Website: https://su2code.github.io                        |
|                                                                       |
| The SU2 Project is maintained by the SU2 Foundation                   |
| (http://su2foundation.org)                                            |
-------------------------------------------------------------------------
| Copyright 2012-2024, SU2 Contributors                                 |
|                                                                       |
| SU2 is free software; you can redistribute it and/or                  |
| modify it under the terms of the GNU Lesser General Public            |
| License as published by the Free Software Foundation; either          |
| version 2.1 of the License, or (at your option) any later version.    |
|                                                                       |
| SU2 is distributed in the hope that it will be useful,                |
| but WITHOUT ANY WARRANTY; without even the implied warranty of        |
| MERCHANTABILITY or FITNESS FOR A PARTICULAR PURPOSE. See the GNU      |
| Lesser General Public License for more details.                       |
|                                                                       |
| You should have received a copy of the GNU Lesser General Public      |
| License along with SU2. If not, see <http://www.gnu.org/licenses/>.   |
-------------------------------------------------------------------------

Parsing config file for zone 0

----------------- Physical Case Definition ( Zone 0 ) -------------------
Compressible RANS equations.
Turbulence model: Spalart-Allmaras-noft2-BCM
Hybrid RANS/LES: No Hybrid RANS/LES
Mach number: 0.667.
Angle of attack (AoA): -4 deg, and angle of sideslip (AoS): 0 deg.
Reynolds number: 600000. Reference length 1.00217.
No restart solution, use the values at infinity (freestream).
Dimensional simulation.
The reference area will be computed using y(2D) or z(3D) projection.
The semi-span will be computed using the max y(3D) value.
The reference length is 1.00217 m.
Reference origin for moment evaluation is (0, 0, 0).
Surface(s) where the force coefficients are evaluated: blade1.

Surface(s) plotted in the output file: blade1.
Surface(s) to be analyzed in detail: inlet, outlet, blade1.
Input mesh file name: cascade2D_databladeVALIDATION_Blade_24.su2

--------------- Space Numerical Integration ( Zone 0 ) ------------------
Jameson-Schmidt-Turkel scheme (2nd order in space) for the flow inviscid terms.
JST viscous coefficients (2nd & 4th): 0.5, 0.02.
The method includes a grid stretching correction (p = 0.3).
Scalar upwind solver for the turbulence model.
First order integration in space.
Average of gradients with correction (viscous flow terms).
Average of gradients with correction (viscous turbulence terms).
Gradient for upwind reconstruction: inverse-distance weighted Least-Squares.
Gradient for viscous and source terms: inverse-distance weighted Least-Squares.

--------------- Time Numerical Integration  ( Zone 0 ) ------------------
Local time stepping (steady state simulation).
Euler implicit method for the flow equations.
FGMRES is used for solving the linear system.
Using a LU-SGS preconditioning.
Convergence criteria of the linear solver: 0.0001.
Max number of linear iterations: 10.
V Multigrid Cycle, with 3 multigrid levels.
Damping factor for the residual restriction: 0.75.
Damping factor for the correction prolongation: 0.75.
CFL adaptation. Factor down: 0.1, factor up: 1.2,
                lower limit: 0.1, upper limit: 100,
                acceptable linear residual: 0.001.
+-------------------------------------------+
|  MG Level| Presmooth|PostSmooth|CorrectSmo|
+-------------------------------------------+
|         0|         1|         0|         1|
|         1|         2|         2|         2|
|         2|         3|         3|         3|
|         3|         3|         0|         0|
+-------------------------------------------+
Courant-Friedrichs-Lewy number:       12
Euler implicit time integration for the turbulence model.

------------------ Convergence Criteria  ( Zone 0 ) ---------------------
Maximum number of solver subiterations: 7000.
Begin convergence monitoring at iteration 500.
Residual minimum value: 1e-7.
Cauchy series min. value: 1e-10.
Number of Cauchy elements: 100.
Begin windowed time average at iteration 0.

-------------------- Output Information ( Zone 0 ) ----------------------
File writing frequency: 
+------------------------------------+
|                     File| Frequency|
+------------------------------------+
|                  RESTART|        50|
|                 PARAVIEW|        50|
|         SURFACE_PARAVIEW|        50|
|                      CSV|        50|
|              SURFACE_CSV|        50|
+------------------------------------+
Writing the convergence history file every 1 inner iterations.
Writing the screen convergence history every 10 inner iterations.
The tabular file format is CSV (.csv).
Convergence history file name: history_databladeVALIDATION_Blade_24.
Forces breakdown file name: forces_breakdown.dat.
Surface file name: surface_flowdatabladeVALIDATION_Blade_24.
Volume file name: volume_flow_databladeVALIDATION_Blade_24.
Restart file name: restart_flow_databladeVALIDATION_Blade_24.dat.

------------- Config File Boundary Information ( Zone 0 ) ---------------
+-----------------------------------------------------------------------+
|                        Marker Type|                        Marker Name|
+-----------------------------------------------------------------------+
|                  Periodic boundary|               symmetricWallsBOTTOM|
|                                   |                  symmetricWallsTOP|
+-----------------------------------------------------------------------+
|                     Inlet boundary|                              inlet|
+-----------------------------------------------------------------------+
|                    Outlet boundary|                             outlet|
+-----------------------------------------------------------------------+
|                     Heat flux wall|                             blade1|
|                                   |                             blade2|
+-----------------------------------------------------------------------+

-------------------- Output Preprocessing ( Zone 0 ) --------------------
  Info: Ignoring the following screen output fields:
  LINSOL_ITER_TRANS, LINSOL_RESIDUAL_TRANS
Screen output fields: INNER_ITER, WALL_TIME, RMS_DENSITY
  Info: Ignoring the following history output groups:
  RMS_TKE, RMS_DISSIPATION
History output group(s): INNER_ITER, WALL_TIME, RMS_DENSITY, RMS_MOMENTUM-X, RMS_ENERGY, LINSOL, CFL_NUMBER, FLOW_COEFF_SURF, AERO_COEFF_SURF
Convergence field(s): RMS_DENSITY
Warning: No (valid) fields chosen for time convergence monitoring. Time convergence monitoring inactive.
Volume output fields: COORDINATES, SOLUTION, PRIMITIVE, RESIDUAL, TIMESTEP, MESH_QUALITY, VORTEX_IDENTIFICATION

------------------- Geometry Preprocessing ( Zone 0 ) -------------------
Two dimensional problem.
67451 grid points before partitioning.
104626 volume elements before partitioning.
5 surface markers.
30 boundary elements in index 0 (Marker = inlet).
283 boundary elements in index 1 (Marker = symmetricWallsBOTTOM).
283 boundary elements in index 2 (Marker = symmetricWallsTOP).
30 boundary elements in index 3 (Marker = outlet).
1186 boundary elements in index 4 (Marker = blade1).
Executing the partitioning functions.
Building the graph adjacency structure.
Calling ParMETIS... graph partitioning complete (1650 edge cuts).
Distributing ParMETIS coloring.
Rebalancing vertices.
Rebalancing volume element connectivity.
Rebalancing markers and surface elements.
69463 vertices including ghost points. 
106265 interior elements including halo cells. 
77452 triangles.
28813 quadrilaterals.
Establishing MPI communication patterns.
Setting point connectivity.
Renumbering points (Reverse Cuthill McKee Ordering).
Recomputing point connectivity.
Setting element connectivity.
Checking the numerical grid orientation.
All volume elements are correctly orientend.
There has been a re-orientation of 917 LINE surface elements.
Identifying edges and vertices.
Setting the control volume structure.
Area of the computational grid: 3.97017.
Searching for the closest normal neighbors to the surfaces.
Storing a mapping from global to local point index.
Compute the surface curvature.
Max K: 124.314. Mean K: 4.13722. Standard deviation K: 13.8332.
Checking for periodicity.
WARNING: Periodicity has been detected. Disabling multigrid. 
Computing mesh quality statistics for the dual control volumes.
+--------------------------------------------------------------+
|           Mesh Quality Metric|        Minimum|        Maximum|
+--------------------------------------------------------------+
|    Orthogonality Angle (deg.)|        55.2254|             90|
|     CV Face Area Aspect Ratio|         1.0005|        284.463|
|           CV Sub-Volume Ratio|              1|        20.4243|
+--------------------------------------------------------------+
Finding max control volume width.
Communicating number of neighbors.
Reference length = 1.01461 m.
Wetted area = 2.84272 m.
Area projection in the x-plane = 0.891086 m, y-plane = 1.01461 m.
Max. coordinate in the x-direction = 1.01451 m, y-direction = 0.761713 m.
Min. coordinate in the x-direction = -0.000105228 m, y-direction = -0.129377 m.
Matching the periodic boundary points for marker pair 1.
 Matched 568 points with a max distance of: 9.49726e-14.
Computing wall distances.

-------------------- Solver Preprocessing ( Zone 0 ) --------------------
Viscous flow: Computing pressure using the ideal gas law
based on the free-stream temperature and a density computed
from the Reynolds number.
Force coefficients computed using free-stream values.

-- Models:
+------------------------------------------------------------------------------+
|          Viscosity Model|        Conductivity Model|              Fluid Model|
+------------------------------------------------------------------------------+
|               SUTHERLAND|          CONSTANT_PRANDTL|                IDEAL_GAS|
+------------------------------------------------------------------------------+
-- Fluid properties:
+------------------------------------------------------------------------------+
|                  Name|    Dim. value|    Ref. value|      Unit|Non-dim. value|
+------------------------------------------------------------------------------+
|        Ref. Viscosity|     1.716e-05|             1|   N.s/m^2|     1.716e-05|
|      Sutherland Temp.|        273.15|             1|         K|        273.15|
|     Sutherland Const.|         110.4|             1|         K|         110.4|
+------------------------------------------------------------------------------+
|        Prandtl (Lam.)|             -|             -|         -|          0.72|
|       Prandtl (Turb.)|             -|             -|         -|           0.9|
+------------------------------------------------------------------------------+
|          Gas Constant|       287.058|             1|  N.m/kg.K|       287.058|
|      Spec. Heat Ratio|             -|             -|         -|           1.4|
+------------------------------------------------------------------------------+
-- Initial and free-stream conditions:
+------------------------------------------------------------------------------+
|                  Name|    Dim. value|    Ref. value|      Unit|Non-dim. value|
+------------------------------------------------------------------------------+
|       Static Pressure|       4109.38|             1|        Pa|       4109.38|
|               Density|     0.0477183|             1|    kg/m^3|     0.0477183|
|           Temperature|           300|             1|         K|           300|
|          Total Energy|        242112|             1|   m^2/s^2|        242112|
|            Velocity-X|       231.034|             1|       m/s|       231.034|
|            Velocity-Y|      -16.1555|             1|       m/s|      -16.1555|
|    Velocity Magnitude|       231.598|             1|       m/s|       231.598|
+------------------------------------------------------------------------------+
|             Viscosity|   1.84592e-05|             1|   N.s/m^2|   1.84592e-05|
|          Conductivity|             -|             1|   W/m^2.K|             -|
|     Turb. Kin. Energy|       98.5594|             1|   m^2/s^2|       98.5594|
|     Spec. Dissipation|   2.54783e+06|             1|       1/s|   2.54783e+06|
+------------------------------------------------------------------------------+
|           Mach Number|             -|             -|         -|         0.667|
|       Reynolds Number|             -|             -|         -|        600000|
+------------------------------------------------------------------------------+
Initialize Jacobian structure (Navier-Stokes). MG level: 0.
Initialize Jacobian structure (SA model).

------------------- Numerics Preprocessing ( Zone 0 ) -------------------

----------------- Integration Preprocessing ( Zone 0 ) ------------------

------------------- Iteration Preprocessing ( Zone 0 ) ------------------
Euler/Navier-Stokes/RANS fluid iteration.

------------------------------ Begin Solver -----------------------------

Simulation Run using the Single-zone Driver
WARNING: SU2 was not compiled for an AVX-capable architecture. Performance could be better,
         see https://su2code.github.io/docs_v7/Build-SU2-Linux-MacOS/#compiler-optimizations
+--------------------------------------+
|  Inner_Iter|   Time(sec)|    rms[Rho]|
+--------------------------------------+
|           0|  1.1015e-01|   -2.590638|
|          10|  9.7805e-02|   -3.207584|
|          20|  1.5175e-01|   -3.014969|
|          30|  1.4214e-01|   -3.066165|
|          40|  1.5810e-01|   -3.022947|
|          50|  1.4692e-01|   -2.831439|
+-----------------------------------------------------------------------+
|        File Writing Summary       |              Filename             |
+-----------------------------------------------------------------------+
|SU2 binary restart                 |restart_flow_databladeVALIDATION_Blade_24.dat|
|                                   |                      (5768.6 MB/s)|
|Paraview                           |volume_flow_databladeVALIDATION_Blade_24.vtu|
|                                   |                     (992.137 MB/s)|
|Paraview surface                   |surface_flowdatabladeVALIDATION_Blade_24.vtu|
|                                   |                     (77.9457 MB/s)|
|SU2 ASCII restart                  |restart_flow_databladeVALIDATION_Blade_24.csv|
|                                   |                     (19.4223 MB/s)|
|CSV file                           |surface_flowdatabladeVALIDATION_Blade_24.csv|
|                                   |                     (14.6027 MB/s)|
+-----------------------------------------------------------------------+
+--------------------------------------+
|  Inner_Iter|   Time(sec)|    rms[Rho]|
+--------------------------------------+
|          60|  2.0123e-01|   -3.021017|
|          70|  1.8603e-01|   -3.089474|
|          80|  1.7991e-01|   -3.136557|
|          90|  1.7492e-01|   -3.112496|
|         100|  1.6582e-01|   -3.150594|
+-----------------------------------------------------------------------+
|        File Writing Summary       |              Filename             |
+-----------------------------------------------------------------------+
|SU2 binary restart                 |restart_flow_databladeVALIDATION_Blade_24.dat|
|                                   |                     (13738.6 MB/s)|
|Paraview                           |volume_flow_databladeVALIDATION_Blade_24.vtu|
|                                   |                     (1029.03 MB/s)|
|Paraview surface                   |surface_flowdatabladeVALIDATION_Blade_24.vtu|
|                                   |                      (97.657 MB/s)|
|SU2 ASCII restart                  |restart_flow_databladeVALIDATION_Blade_24.csv|
|                                   |                     (18.5167 MB/s)|
|CSV file                           |surface_flowdatabladeVALIDATION_Blade_24.csv|
|                                   |                     (19.1198 MB/s)|
+-----------------------------------------------------------------------+
+--------------------------------------+
|  Inner_Iter|   Time(sec)|    rms[Rho]|
+--------------------------------------+
|         110|  1.8992e-01|   -3.145981|
|         120|  1.8094e-01|   -3.102311|
|         130|  1.7287e-01|   -3.101529|
|         140|  1.6556e-01|   -3.166144|
|         150|  1.5870e-01|   -3.189736|
+-----------------------------------------------------------------------+
|        File Writing Summary       |              Filename             |
+-----------------------------------------------------------------------+
|SU2 binary restart                 |restart_flow_databladeVALIDATION_Blade_24.dat|
|                                   |                     (13610.6 MB/s)|
|Paraview                           |volume_flow_databladeVALIDATION_Blade_24.vtu|
|                                   |                     (1077.85 MB/s)|
|Paraview surface                   |surface_flowdatabladeVALIDATION_Blade_24.vtu|
|                                   |                      (127.37 MB/s)|
|SU2 ASCII restart                  |restart_flow_databladeVALIDATION_Blade_24.csv|
|                                   |                     (21.4089 MB/s)|
|CSV file                           |surface_flowdatabladeVALIDATION_Blade_24.csv|
|                                   |                     (20.5132 MB/s)|
+-----------------------------------------------------------------------+
+--------------------------------------+
|  Inner_Iter|   Time(sec)|    rms[Rho]|
+--------------------------------------+
|         160|  1.6880e-01|   -3.184765|
|         170|  1.6325e-01|   -3.219876|
|         180|  1.5806e-01|   -3.306267|
|         190|  1.5415e-01|   -3.236547|
|         200|  1.5107e-01|   -2.982167|
+-----------------------------------------------------------------------+
|        File Writing Summary       |              Filename             |
+-----------------------------------------------------------------------+
|SU2 binary restart                 |restart_flow_databladeVALIDATION_Blade_24.dat|
|                                   |                     (13578.5 MB/s)|
|Paraview                           |volume_flow_databladeVALIDATION_Blade_24.vtu|
|                                   |                     (766.561 MB/s)|
|Paraview surface                   |surface_flowdatabladeVALIDATION_Blade_24.vtu|
|                                   |                     (54.6891 MB/s)|
|SU2 ASCII restart                  |restart_flow_databladeVALIDATION_Blade_24.csv|
|                                   |                     (20.8128 MB/s)|
|CSV file                           |surface_flowdatabladeVALIDATION_Blade_24.csv|
|                                   |                     (21.5032 MB/s)|
+-----------------------------------------------------------------------+
+--------------------------------------+
|  Inner_Iter|   Time(sec)|    rms[Rho]|
+--------------------------------------+
|         210|  1.5974e-01|   -3.048326|
|         220|  1.5555e-01|   -3.077838|
|         230|  1.5217e-01|   -3.091027|
|         240|  1.4904e-01|   -3.117205|
|         250|  1.4581e-01|   -3.251981|
+-----------------------------------------------------------------------+
|        File Writing Summary       |              Filename             |
+-----------------------------------------------------------------------+
|SU2 binary restart                 |restart_flow_databladeVALIDATION_Blade_24.dat|
|                                   |                       (10168 MB/s)|
|Paraview                           |volume_flow_databladeVALIDATION_Blade_24.vtu|
|                                   |                     (674.218 MB/s)|
|Paraview surface                   |surface_flowdatabladeVALIDATION_Blade_24.vtu|
|                                   |                     (46.5957 MB/s)|
|SU2 ASCII restart                  |restart_flow_databladeVALIDATION_Blade_24.csv|
|                                   |                     (20.6072 MB/s)|
|CSV file                           |surface_flowdatabladeVALIDATION_Blade_24.csv|
|                                   |                     (21.9321 MB/s)|
+-----------------------------------------------------------------------+
+--------------------------------------+
|  Inner_Iter|   Time(sec)|    rms[Rho]|
+--------------------------------------+
|         260|  1.5339e-01|   -3.305019|
|         270|  1.5084e-01|   -3.285765|
|         280|  1.4810e-01|   -3.278927|
|         290|  1.4557e-01|   -3.352457|
|         300|  1.4332e-01|   -3.364244|
+-----------------------------------------------------------------------+
|        File Writing Summary       |              Filename             |
+-----------------------------------------------------------------------+
|SU2 binary restart                 |restart_flow_databladeVALIDATION_Blade_24.dat|
|                                   |                     (12940.5 MB/s)|
|Paraview                           |volume_flow_databladeVALIDATION_Blade_24.vtu|
|                                   |                     (1086.28 MB/s)|
|Paraview surface                   |surface_flowdatabladeVALIDATION_Blade_24.vtu|
|                                   |                       (129.4 MB/s)|
|SU2 ASCII restart                  |restart_flow_databladeVALIDATION_Blade_24.csv|
|                                   |                     (22.0052 MB/s)|
|CSV file                           |surface_flowdatabladeVALIDATION_Blade_24.csv|
|                                   |                     (19.4115 MB/s)|
+-----------------------------------------------------------------------+
+--------------------------------------+
|  Inner_Iter|   Time(sec)|    rms[Rho]|
+--------------------------------------+
|         310|  1.4917e-01|   -3.406659|
|         320|  1.4715e-01|   -3.317289|
|         330|  1.4496e-01|   -3.450771|
|         340|  1.4267e-01|   -3.574534|
|         350|  1.4080e-01|   -3.534109|
+-----------------------------------------------------------------------+
|        File Writing Summary       |              Filename             |
+-----------------------------------------------------------------------+
|SU2 binary restart                 |restart_flow_databladeVALIDATION_Blade_24.dat|
|                                   |                     (13478.8 MB/s)|
|Paraview                           |volume_flow_databladeVALIDATION_Blade_24.vtu|
|                                   |                     (1058.79 MB/s)|
|Paraview surface                   |surface_flowdatabladeVALIDATION_Blade_24.vtu|
|                                   |                     (94.7665 MB/s)|
|SU2 ASCII restart                  |restart_flow_databladeVALIDATION_Blade_24.csv|
|                                   |                     (21.0307 MB/s)|
|CSV file                           |surface_flowdatabladeVALIDATION_Blade_24.csv|
|                                   |                       (20.06 MB/s)|
+-----------------------------------------------------------------------+
+--------------------------------------+
|  Inner_Iter|   Time(sec)|    rms[Rho]|
+--------------------------------------+
|         360|  1.4631e-01|   -3.531149|
|         370|  1.4453e-01|   -3.590765|
|         380|  1.4281e-01|   -3.651906|
|         390|  1.4140e-01|   -3.606901|
|         400|  1.4002e-01|   -3.642660|
+-----------------------------------------------------------------------+
|        File Writing Summary       |              Filename             |
+-----------------------------------------------------------------------+
|SU2 binary restart                 |restart_flow_databladeVALIDATION_Blade_24.dat|
|                                   |                     (12722.5 MB/s)|
|Paraview                           |volume_flow_databladeVALIDATION_Blade_24.vtu|
|                                   |                     (1077.61 MB/s)|
|Paraview surface                   |surface_flowdatabladeVALIDATION_Blade_24.vtu|
|                                   |                     (94.3955 MB/s)|
|SU2 ASCII restart                  |restart_flow_databladeVALIDATION_Blade_24.csv|
|                                   |                      (21.307 MB/s)|
|CSV file                           |surface_flowdatabladeVALIDATION_Blade_24.csv|
|                                   |                     (22.0229 MB/s)|
+-----------------------------------------------------------------------+
+--------------------------------------+
|  Inner_Iter|   Time(sec)|    rms[Rho]|
+--------------------------------------+
|         410|  1.4467e-01|   -3.703259|
|         420|  1.4325e-01|   -3.712732|
|         430|  1.4175e-01|   -3.685634|
|         440|  1.4038e-01|   -3.827588|
|         450|  1.3900e-01|   -3.853438|
+-----------------------------------------------------------------------+
|        File Writing Summary       |              Filename             |
+-----------------------------------------------------------------------+
|SU2 binary restart                 |restart_flow_databladeVALIDATION_Blade_24.dat|
|                                   |                     (13517.7 MB/s)|
|Paraview                           |volume_flow_databladeVALIDATION_Blade_24.vtu|
|                                   |                     (1059.43 MB/s)|
|Paraview surface                   |surface_flowdatabladeVALIDATION_Blade_24.vtu|
|                                   |                     (124.999 MB/s)|
|SU2 ASCII restart                  |restart_flow_databladeVALIDATION_Blade_24.csv|
|                                   |                     (20.1371 MB/s)|
|CSV file                           |surface_flowdatabladeVALIDATION_Blade_24.csv|
|                                   |                     (18.9006 MB/s)|
+-----------------------------------------------------------------------+
+--------------------------------------+
|  Inner_Iter|   Time(sec)|    rms[Rho]|
+--------------------------------------+
|         460|  1.4359e-01|   -3.850010|
|         470|  1.4228e-01|   -3.851647|
|         480|  1.4081e-01|   -3.930160|
|         490|  1.3949e-01|   -3.966623|
|         500|  1.3845e-01|   -3.923263|
+-----------------------------------------------------------------------+
|        File Writing Summary       |              Filename             |
+-----------------------------------------------------------------------+
|SU2 binary restart                 |restart_flow_databladeVALIDATION_Blade_24.dat|
|                                   |                     (12288.2 MB/s)|
|Paraview                           |volume_flow_databladeVALIDATION_Blade_24.vtu|
|                                   |                     (1050.47 MB/s)|
|Paraview surface                   |surface_flowdatabladeVALIDATION_Blade_24.vtu|
|                                   |                      (133.58 MB/s)|
|SU2 ASCII restart                  |restart_flow_databladeVALIDATION_Blade_24.csv|
|                                   |                     (21.1034 MB/s)|
|CSV file                           |surface_flowdatabladeVALIDATION_Blade_24.csv|
|                                   |                     (20.4174 MB/s)|
+-----------------------------------------------------------------------+
+--------------------------------------+
|  Inner_Iter|   Time(sec)|    rms[Rho]|
+--------------------------------------+
|         510|  1.4224e-01|   -3.970461|
|         520|  1.4081e-01|   -4.011079|
|         530|  1.3957e-01|   -4.010677|
|         540|  1.3860e-01|   -3.950930|
|         550|  1.3743e-01|   -4.006715|
+-----------------------------------------------------------------------+
|        File Writing Summary       |              Filename             |
+-----------------------------------------------------------------------+
|SU2 binary restart                 |restart_flow_databladeVALIDATION_Blade_24.dat|
|                                   |                     (12147.5 MB/s)|
|Paraview                           |volume_flow_databladeVALIDATION_Blade_24.vtu|
|                                   |                     (993.617 MB/s)|
|Paraview surface                   |surface_flowdatabladeVALIDATION_Blade_24.vtu|
|                                   |                     (97.1338 MB/s)|
|SU2 ASCII restart                  |restart_flow_databladeVALIDATION_Blade_24.csv|
|                                   |                     (21.4787 MB/s)|
|CSV file                           |surface_flowdatabladeVALIDATION_Blade_24.csv|
|                                   |                     (19.9216 MB/s)|
+-----------------------------------------------------------------------+
+--------------------------------------+
|  Inner_Iter|   Time(sec)|    rms[Rho]|
+--------------------------------------+
|         560|  1.4078e-01|   -3.999647|
|         570|  1.3972e-01|   -3.952867|
|         580|  1.3869e-01|   -3.991831|
|         590|  1.3750e-01|   -4.005300|
|         600|  1.3638e-01|   -4.012393|
+-----------------------------------------------------------------------+
|        File Writing Summary       |              Filename             |
+-----------------------------------------------------------------------+
|SU2 binary restart                 |restart_flow_databladeVALIDATION_Blade_24.dat|
|                                   |                     (11982.5 MB/s)|
|Paraview                           |volume_flow_databladeVALIDATION_Blade_24.vtu|
|                                   |                     (1146.89 MB/s)|
|Paraview surface                   |surface_flowdatabladeVALIDATION_Blade_24.vtu|
|                                   |                      (98.206 MB/s)|
|SU2 ASCII restart                  |restart_flow_databladeVALIDATION_Blade_24.csv|
|                                   |                     (21.4424 MB/s)|
|CSV file                           |surface_flowdatabladeVALIDATION_Blade_24.csv|
|                                   |                     (20.6684 MB/s)|
+-----------------------------------------------------------------------+
+--------------------------------------+
|  Inner_Iter|   Time(sec)|    rms[Rho]|
+--------------------------------------+
|         610|  1.3953e-01|   -4.002124|
|         620|  1.3846e-01|   -4.035080|
|         630|  1.3734e-01|   -4.064101|
|         640|  1.3632e-01|   -4.082094|
|         650|  1.3541e-01|   -4.072805|
+-----------------------------------------------------------------------+
|        File Writing Summary       |              Filename             |
+-----------------------------------------------------------------------+
|SU2 binary restart                 |restart_flow_databladeVALIDATION_Blade_24.dat|
|                                   |                     (12317.9 MB/s)|
|Paraview                           |volume_flow_databladeVALIDATION_Blade_24.vtu|
|                                   |                     (1203.01 MB/s)|
|Paraview surface                   |surface_flowdatabladeVALIDATION_Blade_24.vtu|
|                                   |                     (131.346 MB/s)|
|SU2 ASCII restart                  |restart_flow_databladeVALIDATION_Blade_24.csv|
|                                   |                     (21.5304 MB/s)|
|CSV file                           |surface_flowdatabladeVALIDATION_Blade_24.csv|
|                                   |                     (21.0929 MB/s)|
+-----------------------------------------------------------------------+
+--------------------------------------+
|  Inner_Iter|   Time(sec)|    rms[Rho]|
+--------------------------------------+
|         660|  1.3824e-01|   -4.101910|
|         670|  1.3726e-01|   -4.108776|
|         680|  1.3641e-01|   -4.078316|
|         690|  1.3564e-01|   -4.094732|
|         700|  1.3469e-01|   -4.142548|
+-----------------------------------------------------------------------+
|        File Writing Summary       |              Filename             |
+-----------------------------------------------------------------------+
|SU2 binary restart                 |restart_flow_databladeVALIDATION_Blade_24.dat|
|                                   |                     (10449.4 MB/s)|
|Paraview                           |volume_flow_databladeVALIDATION_Blade_24.vtu|
|                                   |                     (950.898 MB/s)|
|Paraview surface                   |surface_flowdatabladeVALIDATION_Blade_24.vtu|
|                                   |                     (78.4479 MB/s)|
|SU2 ASCII restart                  |restart_flow_databladeVALIDATION_Blade_24.csv|
|                                   |                     (21.6724 MB/s)|
|CSV file                           |surface_flowdatabladeVALIDATION_Blade_24.csv|
|                                   |                     (20.8957 MB/s)|
+-----------------------------------------------------------------------+
+--------------------------------------+
|  Inner_Iter|   Time(sec)|    rms[Rho]|
+--------------------------------------+
|         710|  1.3741e-01|   -4.168853|
|         720|  1.3671e-01|   -4.149403|
|         730|  1.3607e-01|   -4.209914|
|         740|  1.3545e-01|   -4.230909|
|         750|  1.3454e-01|   -4.287151|
+-----------------------------------------------------------------------+
|        File Writing Summary       |              Filename             |
+-----------------------------------------------------------------------+
|SU2 binary restart                 |restart_flow_databladeVALIDATION_Blade_24.dat|
|                                   |                       (12981 MB/s)|
|Paraview                           |volume_flow_databladeVALIDATION_Blade_24.vtu|
|                                   |                     (1102.95 MB/s)|
|Paraview surface                   |surface_flowdatabladeVALIDATION_Blade_24.vtu|
|                                   |                     (97.4439 MB/s)|
|SU2 ASCII restart                  |restart_flow_databladeVALIDATION_Blade_24.csv|
|                                   |                     (21.6632 MB/s)|
|CSV file                           |surface_flowdatabladeVALIDATION_Blade_24.csv|
|                                   |                     (20.3489 MB/s)|
+-----------------------------------------------------------------------+
+--------------------------------------+
|  Inner_Iter|   Time(sec)|    rms[Rho]|
+--------------------------------------+
|         760|  1.3706e-01|   -4.311173|
|         770|  1.3626e-01|   -4.303855|
|         780|  1.3557e-01|   -4.322996|
|         790|  1.3486e-01|   -4.361412|
|         800|  1.3414e-01|   -4.349858|
+-----------------------------------------------------------------------+
|        File Writing Summary       |              Filename             |
+-----------------------------------------------------------------------+
|SU2 binary restart                 |restart_flow_databladeVALIDATION_Blade_24.dat|
|                                   |                     (12642.1 MB/s)|
|Paraview                           |volume_flow_databladeVALIDATION_Blade_24.vtu|
|                                   |                     (1147.59 MB/s)|
|Paraview surface                   |surface_flowdatabladeVALIDATION_Blade_24.vtu|
|                                   |                     (97.9188 MB/s)|
|SU2 ASCII restart                  |restart_flow_databladeVALIDATION_Blade_24.csv|
|                                   |                     (21.8415 MB/s)|
|CSV file                           |surface_flowdatabladeVALIDATION_Blade_24.csv|
|                                   |                     (21.7849 MB/s)|
+-----------------------------------------------------------------------+
+--------------------------------------+
|  Inner_Iter|   Time(sec)|    rms[Rho]|
+--------------------------------------+
|         810|  1.3648e-01|   -4.388625|
|         820|  1.3564e-01|   -4.408972|
|         830|  1.3491e-01|   -4.416008|
|         840|  1.3424e-01|   -4.408725|
|         850|  1.3357e-01|   -4.473348|
+-----------------------------------------------------------------------+
|        File Writing Summary       |              Filename             |
+-----------------------------------------------------------------------+
|SU2 binary restart                 |restart_flow_databladeVALIDATION_Blade_24.dat|
|                                   |                     (10981.9 MB/s)|
|Paraview                           |volume_flow_databladeVALIDATION_Blade_24.vtu|
|                                   |                     (1059.59 MB/s)|
|Paraview surface                   |surface_flowdatabladeVALIDATION_Blade_24.vtu|
|                                   |                      (75.114 MB/s)|
|SU2 ASCII restart                  |restart_flow_databladeVALIDATION_Blade_24.csv|
|                                   |                     (21.5074 MB/s)|
|CSV file                           |surface_flowdatabladeVALIDATION_Blade_24.csv|
|                                   |                     (19.9383 MB/s)|
+-----------------------------------------------------------------------+
+--------------------------------------+
|  Inner_Iter|   Time(sec)|    rms[Rho]|
+--------------------------------------+
|         860|  1.3613e-01|   -4.427848|
|         870|  1.3541e-01|   -4.468638|
|         880|  1.3487e-01|   -4.451199|
|         890|  1.3424e-01|   -4.487104|
|         900|  1.3355e-01|   -4.504504|
+-----------------------------------------------------------------------+
|        File Writing Summary       |              Filename             |
+-----------------------------------------------------------------------+
|SU2 binary restart                 |restart_flow_databladeVALIDATION_Blade_24.dat|
|                                   |                     (12412.3 MB/s)|
|Paraview                           |volume_flow_databladeVALIDATION_Blade_24.vtu|
|                                   |                     (999.466 MB/s)|
|Paraview surface                   |surface_flowdatabladeVALIDATION_Blade_24.vtu|
|                                   |                     (58.0385 MB/s)|
|SU2 ASCII restart                  |restart_flow_databladeVALIDATION_Blade_24.csv|
|                                   |                     (20.9885 MB/s)|
|CSV file                           |surface_flowdatabladeVALIDATION_Blade_24.csv|
|                                   |                     (19.8841 MB/s)|
+-----------------------------------------------------------------------+
+--------------------------------------+
|  Inner_Iter|   Time(sec)|    rms[Rho]|
+--------------------------------------+
|         910|  1.3577e-01|   -4.506658|
|         920|  1.3516e-01|   -4.496219|
|         930|  1.3448e-01|   -4.531265|
|         940|  1.3385e-01|   -4.533964|
|         950|  1.3330e-01|   -4.524657|
+-----------------------------------------------------------------------+
|        File Writing Summary       |              Filename             |
+-----------------------------------------------------------------------+
|SU2 binary restart                 |restart_flow_databladeVALIDATION_Blade_24.dat|
|                                   |                      (1788.4 MB/s)|
|Paraview                           |volume_flow_databladeVALIDATION_Blade_24.vtu|
|                                   |                     (1104.65 MB/s)|
|Paraview surface                   |surface_flowdatabladeVALIDATION_Blade_24.vtu|
|                                   |                     (97.8037 MB/s)|
|SU2 ASCII restart                  |restart_flow_databladeVALIDATION_Blade_24.csv|
|                                   |                     (20.7916 MB/s)|
|CSV file                           |surface_flowdatabladeVALIDATION_Blade_24.csv|
|                                   |                     (21.2369 MB/s)|
+-----------------------------------------------------------------------+
+--------------------------------------+
|  Inner_Iter|   Time(sec)|    rms[Rho]|
+--------------------------------------+
|         960|  1.3542e-01|   -4.531051|
|         970|  1.3496e-01|   -4.539091|
|         980|  1.3449e-01|   -4.524665|
|         990|  1.3406e-01|   -4.501650|
|        1000|  1.3354e-01|   -4.519711|
+-----------------------------------------------------------------------+
|        File Writing Summary       |              Filename             |
+-----------------------------------------------------------------------+
|SU2 binary restart                 |restart_flow_databladeVALIDATION_Blade_24.dat|
|                                   |                     (13480.9 MB/s)|
|Paraview                           |volume_flow_databladeVALIDATION_Blade_24.vtu|
|                                   |                     (1030.56 MB/s)|
|Paraview surface                   |surface_flowdatabladeVALIDATION_Blade_24.vtu|
|                                   |                     (88.7095 MB/s)|
|SU2 ASCII restart                  |restart_flow_databladeVALIDATION_Blade_24.csv|
|                                   |                     (20.9341 MB/s)|
|CSV file                           |surface_flowdatabladeVALIDATION_Blade_24.csv|
|                                   |                     (19.1881 MB/s)|
+-----------------------------------------------------------------------+
+--------------------------------------+
|  Inner_Iter|   Time(sec)|    rms[Rho]|
+--------------------------------------+
|        1010|  1.3548e-01|   -4.533733|
|        1020|  1.3532e-01|   -4.513216|
|        1030|  1.3505e-01|   -4.558021|
|        1040|  1.3455e-01|   -4.603719|
|        1050|  1.3472e-01|   -4.604741|
+-----------------------------------------------------------------------+
|        File Writing Summary       |              Filename             |
+-----------------------------------------------------------------------+
|SU2 binary restart                 |restart_flow_databladeVALIDATION_Blade_24.dat|
|                                   |                      (8476.2 MB/s)|
|Paraview                           |volume_flow_databladeVALIDATION_Blade_24.vtu|
|                                   |                     (1005.84 MB/s)|
|Paraview surface                   |surface_flowdatabladeVALIDATION_Blade_24.vtu|
|                                   |                     (98.7976 MB/s)|
|SU2 ASCII restart                  |restart_flow_databladeVALIDATION_Blade_24.csv|
|                                   |                     (21.0842 MB/s)|
|CSV file                           |surface_flowdatabladeVALIDATION_Blade_24.csv|
|                                   |                      (18.753 MB/s)|
+-----------------------------------------------------------------------+
+--------------------------------------+
|  Inner_Iter|   Time(sec)|    rms[Rho]|
+--------------------------------------+
|        1060|  1.3664e-01|   -4.590852|
|        1070|  1.3622e-01|   -4.588403|
|        1080|  1.3579e-01|   -4.597619|
|        1090|  1.3530e-01|   -4.626058|
|        1100|  1.3489e-01|   -4.636426|
+-----------------------------------------------------------------------+
|        File Writing Summary       |              Filename             |
+-----------------------------------------------------------------------+
|SU2 binary restart                 |restart_flow_databladeVALIDATION_Blade_24.dat|
|                                   |                     (8149.44 MB/s)|
|Paraview                           |volume_flow_databladeVALIDATION_Blade_24.vtu|
|                                   |                     (893.565 MB/s)|
|Paraview surface                   |surface_flowdatabladeVALIDATION_Blade_24.vtu|
|                                   |                     (59.9746 MB/s)|
|SU2 ASCII restart                  |restart_flow_databladeVALIDATION_Blade_24.csv|
|                                   |                     (19.7996 MB/s)|
|CSV file                           |surface_flowdatabladeVALIDATION_Blade_24.csv|
|                                   |                     (19.1311 MB/s)|
+-----------------------------------------------------------------------+
+--------------------------------------+
|  Inner_Iter|   Time(sec)|    rms[Rho]|
+--------------------------------------+
|        1110|  1.3694e-01|   -4.635232|
|        1120|  1.3649e-01|   -4.643544|
|        1130|  1.3591e-01|   -4.673016|
|        1140|  1.3536e-01|   -4.680078|
|        1150|  1.3501e-01|   -4.658200|
+-----------------------------------------------------------------------+
|        File Writing Summary       |              Filename             |
+-----------------------------------------------------------------------+
|SU2 binary restart                 |restart_flow_databladeVALIDATION_Blade_24.dat|
|                                   |                     (13861.5 MB/s)|
|Paraview                           |volume_flow_databladeVALIDATION_Blade_24.vtu|
|                                   |                     (922.316 MB/s)|
|Paraview surface                   |surface_flowdatabladeVALIDATION_Blade_24.vtu|
|                                   |                     (74.6951 MB/s)|
|SU2 ASCII restart                  |restart_flow_databladeVALIDATION_Blade_24.csv|
|                                   |                     (20.5292 MB/s)|
|CSV file                           |surface_flowdatabladeVALIDATION_Blade_24.csv|
|                                   |                     (18.5996 MB/s)|
+-----------------------------------------------------------------------+
+--------------------------------------+
|  Inner_Iter|   Time(sec)|    rms[Rho]|
+--------------------------------------+
|        1160|  1.3676e-01|   -4.683271|
|        1170|  1.3625e-01|   -4.687069|
|        1180|  1.3579e-01|   -4.680322|
|        1190|  1.3536e-01|   -4.675642|
|        1200|  1.3489e-01|   -4.721219|
+-----------------------------------------------------------------------+
|        File Writing Summary       |              Filename             |
+-----------------------------------------------------------------------+
|SU2 binary restart                 |restart_flow_databladeVALIDATION_Blade_24.dat|
|                                   |                     (9894.71 MB/s)|
|Paraview                           |volume_flow_databladeVALIDATION_Blade_24.vtu|
|                                   |                     (1098.37 MB/s)|
|Paraview surface                   |surface_flowdatabladeVALIDATION_Blade_24.vtu|
|                                   |                     (97.9148 MB/s)|
|SU2 ASCII restart                  |restart_flow_databladeVALIDATION_Blade_24.csv|
|                                   |                     (21.3158 MB/s)|
|CSV file                           |surface_flowdatabladeVALIDATION_Blade_24.csv|
|                                   |                     (21.4296 MB/s)|
+-----------------------------------------------------------------------+
+--------------------------------------+
|  Inner_Iter|   Time(sec)|    rms[Rho]|
+--------------------------------------+
|        1210|  1.3651e-01|   -4.722804|
|        1220|  1.3616e-01|   -4.737166|
|        1230|  1.3566e-01|   -4.751119|
|        1240|  1.3541e-01|   -4.737552|
|        1250|  1.3508e-01|   -4.750195|
+-----------------------------------------------------------------------+
|        File Writing Summary       |              Filename             |
+-----------------------------------------------------------------------+
|SU2 binary restart                 |restart_flow_databladeVALIDATION_Blade_24.dat|
|                                   |                     (13470.7 MB/s)|
|Paraview                           |volume_flow_databladeVALIDATION_Blade_24.vtu|
|                                   |                     (987.172 MB/s)|
|Paraview surface                   |surface_flowdatabladeVALIDATION_Blade_24.vtu|
|                                   |                     (99.2777 MB/s)|
|SU2 ASCII restart                  |restart_flow_databladeVALIDATION_Blade_24.csv|
|                                   |                     (20.4226 MB/s)|
|CSV file                           |surface_flowdatabladeVALIDATION_Blade_24.csv|
|                                   |                     (18.9808 MB/s)|
+-----------------------------------------------------------------------+
+--------------------------------------+
|  Inner_Iter|   Time(sec)|    rms[Rho]|
+--------------------------------------+
|        1260|  1.3695e-01|   -4.758751|
|        1270|  1.3669e-01|   -4.776263|
|        1280|  1.3625e-01|   -4.797909|
|        1290|  1.3603e-01|   -4.817021|
|        1300|  1.3565e-01|   -4.814076|
+-----------------------------------------------------------------------+
|        File Writing Summary       |              Filename             |
+-----------------------------------------------------------------------+
|SU2 binary restart                 |restart_flow_databladeVALIDATION_Blade_24.dat|
|                                   |                     (4885.77 MB/s)|
|Paraview                           |volume_flow_databladeVALIDATION_Blade_24.vtu|
|                                   |                     (1085.09 MB/s)|
|Paraview surface                   |surface_flowdatabladeVALIDATION_Blade_24.vtu|
|                                   |                     (119.438 MB/s)|
|SU2 ASCII restart                  |restart_flow_databladeVALIDATION_Blade_24.csv|
|                                   |                     (20.3176 MB/s)|
|CSV file                           |surface_flowdatabladeVALIDATION_Blade_24.csv|
|                                   |                     (20.4441 MB/s)|
+-----------------------------------------------------------------------+
+--------------------------------------+
|  Inner_Iter|   Time(sec)|    rms[Rho]|
+--------------------------------------+
|        1310|  1.3723e-01|   -4.819324|
|        1320|  1.3673e-01|   -4.832488|
|        1330|  1.3624e-01|   -4.832152|
|        1340|  1.3592e-01|   -4.817587|
|        1350|  1.3559e-01|   -4.822301|
+-----------------------------------------------------------------------+
|        File Writing Summary       |              Filename             |
+-----------------------------------------------------------------------+
|SU2 binary restart                 |restart_flow_databladeVALIDATION_Blade_24.dat|
|                                   |                     (10029.5 MB/s)|
|Paraview                           |volume_flow_databladeVALIDATION_Blade_24.vtu|
|                                   |                     (1073.21 MB/s)|
|Paraview surface                   |surface_flowdatabladeVALIDATION_Blade_24.vtu|
|                                   |                     (88.0133 MB/s)|
|SU2 ASCII restart                  |restart_flow_databladeVALIDATION_Blade_24.csv|
|                                   |                      (20.675 MB/s)|
|CSV file                           |surface_flowdatabladeVALIDATION_Blade_24.csv|
|                                   |                     (19.2805 MB/s)|
+-----------------------------------------------------------------------+
+--------------------------------------+
|  Inner_Iter|   Time(sec)|    rms[Rho]|
+--------------------------------------+
|        1360|  1.3707e-01|   -4.827509|
|        1370|  1.3655e-01|   -4.834013|
|        1380|  1.3612e-01|   -4.834001|
|        1390|  1.3608e-01|   -4.824439|
|        1400|  1.3574e-01|   -4.838303|
+-----------------------------------------------------------------------+
|        File Writing Summary       |              Filename             |
+-----------------------------------------------------------------------+
|SU2 binary restart                 |restart_flow_databladeVALIDATION_Blade_24.dat|
|                                   |                     (12995.2 MB/s)|
|Paraview                           |volume_flow_databladeVALIDATION_Blade_24.vtu|
|                                   |                     (893.054 MB/s)|
|Paraview surface                   |surface_flowdatabladeVALIDATION_Blade_24.vtu|
|                                   |                     (89.7064 MB/s)|
|SU2 ASCII restart                  |restart_flow_databladeVALIDATION_Blade_24.csv|
|                                   |                     (20.2535 MB/s)|
|CSV file                           |surface_flowdatabladeVALIDATION_Blade_24.csv|
|                                   |                     (18.9727 MB/s)|
+-----------------------------------------------------------------------+
+--------------------------------------+
|  Inner_Iter|   Time(sec)|    rms[Rho]|
+--------------------------------------+
|        1410|  1.3724e-01|   -4.844674|
|        1420|  1.3685e-01|   -4.842829|
|        1430|  1.3658e-01|   -4.842746|
|        1440|  1.3674e-01|   -4.856796|
|        1450|  1.3651e-01|   -4.862266|
+-----------------------------------------------------------------------+
|        File Writing Summary       |              Filename             |
+-----------------------------------------------------------------------+
|SU2 binary restart                 |restart_flow_databladeVALIDATION_Blade_24.dat|
|                                   |                     (11857.3 MB/s)|
|Paraview                           |volume_flow_databladeVALIDATION_Blade_24.vtu|
|                                   |                     (1009.98 MB/s)|
|Paraview surface                   |surface_flowdatabladeVALIDATION_Blade_24.vtu|
|                                   |                     (88.2323 MB/s)|
|SU2 ASCII restart                  |restart_flow_databladeVALIDATION_Blade_24.csv|
|                                   |                     (20.6114 MB/s)|
|CSV file                           |surface_flowdatabladeVALIDATION_Blade_24.csv|
|                                   |                     (19.3207 MB/s)|
+-----------------------------------------------------------------------+
+--------------------------------------+
|  Inner_Iter|   Time(sec)|    rms[Rho]|
+--------------------------------------+
|        1460|  1.3806e-01|   -4.891887|
|        1470|  1.3775e-01|   -4.930341|
|        1480|  1.3749e-01|   -4.969364|
|        1490|  1.3726e-01|   -5.000535|
|        1500|  1.3691e-01|   -5.007148|
+-----------------------------------------------------------------------+
|        File Writing Summary       |              Filename             |
+-----------------------------------------------------------------------+
|SU2 binary restart                 |restart_flow_databladeVALIDATION_Blade_24.dat|
|                                   |                       (12044 MB/s)|
|Paraview                           |volume_flow_databladeVALIDATION_Blade_24.vtu|
|                                   |                       (912.8 MB/s)|
|Paraview surface                   |surface_flowdatabladeVALIDATION_Blade_24.vtu|
|                                   |                     (39.4848 MB/s)|
|SU2 ASCII restart                  |restart_flow_databladeVALIDATION_Blade_24.csv|
|                                   |                     (20.6682 MB/s)|
|CSV file                           |surface_flowdatabladeVALIDATION_Blade_24.csv|
|                                   |                     (19.7958 MB/s)|
+-----------------------------------------------------------------------+
+--------------------------------------+
|  Inner_Iter|   Time(sec)|    rms[Rho]|
+--------------------------------------+
|        1510|  1.3835e-01|   -5.010880|
|        1520|  1.3793e-01|   -5.029980|
|        1530|  1.3750e-01|   -5.032951|
|        1540|  1.3717e-01|   -5.023088|
|        1550|  1.3681e-01|   -5.032305|
+-----------------------------------------------------------------------+
|        File Writing Summary       |              Filename             |
+-----------------------------------------------------------------------+
|SU2 binary restart                 |restart_flow_databladeVALIDATION_Blade_24.dat|
|                                   |                     (6114.38 MB/s)|
|Paraview                           |volume_flow_databladeVALIDATION_Blade_24.vtu|
|                                   |                     (588.856 MB/s)|
|Paraview surface                   |surface_flowdatabladeVALIDATION_Blade_24.vtu|
|                                   |                     (56.2812 MB/s)|
|SU2 ASCII restart                  |restart_flow_databladeVALIDATION_Blade_24.csv|
|                                   |                     (20.8945 MB/s)|
|CSV file                           |surface_flowdatabladeVALIDATION_Blade_24.csv|
|                                   |                     (20.4391 MB/s)|
+-----------------------------------------------------------------------+
+--------------------------------------+
|  Inner_Iter|   Time(sec)|    rms[Rho]|
+--------------------------------------+
|        1560|  1.3831e-01|   -5.022792|
|        1570|  1.3810e-01|   -5.022392|
|        1580|  1.3776e-01|   -5.038471|
|        1590|  1.3747e-01|   -5.030754|
|        1600|  1.3723e-01|   -5.027079|
+-----------------------------------------------------------------------+
|        File Writing Summary       |              Filename             |
+-----------------------------------------------------------------------+
|SU2 binary restart                 |restart_flow_databladeVALIDATION_Blade_24.dat|
|                                   |                     (13540.3 MB/s)|
|Paraview                           |volume_flow_databladeVALIDATION_Blade_24.vtu|
|                                   |                     (969.269 MB/s)|
|Paraview surface                   |surface_flowdatabladeVALIDATION_Blade_24.vtu|
|                                   |                      (96.919 MB/s)|
|SU2 ASCII restart                  |restart_flow_databladeVALIDATION_Blade_24.csv|
|                                   |                     (20.3534 MB/s)|
|CSV file                           |surface_flowdatabladeVALIDATION_Blade_24.csv|
|                                   |                     (21.5081 MB/s)|
+-----------------------------------------------------------------------+
+--------------------------------------+
|  Inner_Iter|   Time(sec)|    rms[Rho]|
+--------------------------------------+
|        1610|  1.3851e-01|   -5.032724|
|        1620|  1.3824e-01|   -5.020069|
|        1630|  1.3783e-01|   -5.029982|
|        1640|  1.3749e-01|   -5.034454|
|        1650|  1.3714e-01|   -5.030001|
+-----------------------------------------------------------------------+
|        File Writing Summary       |              Filename             |
+-----------------------------------------------------------------------+
|SU2 binary restart                 |restart_flow_databladeVALIDATION_Blade_24.dat|
|                                   |                     (13679.6 MB/s)|
|Paraview                           |volume_flow_databladeVALIDATION_Blade_24.vtu|
|                                   |                     (1102.83 MB/s)|
|Paraview surface                   |surface_flowdatabladeVALIDATION_Blade_24.vtu|
|                                   |                     (125.422 MB/s)|
|SU2 ASCII restart                  |restart_flow_databladeVALIDATION_Blade_24.csv|
|                                   |                     (21.4109 MB/s)|
|CSV file                           |surface_flowdatabladeVALIDATION_Blade_24.csv|
|                                   |                     (19.8811 MB/s)|
+-----------------------------------------------------------------------+
+--------------------------------------+
|  Inner_Iter|   Time(sec)|    rms[Rho]|
+--------------------------------------+
|        1660|  1.3829e-01|   -5.043499|
|        1670|  1.3806e-01|   -5.056438|
|        1680|  1.3784e-01|   -5.080330|
|        1690|  1.3755e-01|   -5.107050|
|        1700|  1.3729e-01|   -5.137875|
+-----------------------------------------------------------------------+
|        File Writing Summary       |              Filename             |
+-----------------------------------------------------------------------+
|SU2 binary restart                 |restart_flow_databladeVALIDATION_Blade_24.dat|
|                                   |                     (11758.7 MB/s)|
|Paraview                           |volume_flow_databladeVALIDATION_Blade_24.vtu|
|                                   |                     (1146.65 MB/s)|
|Paraview surface                   |surface_flowdatabladeVALIDATION_Blade_24.vtu|
|                                   |                     (75.9637 MB/s)|
|SU2 ASCII restart                  |restart_flow_databladeVALIDATION_Blade_24.csv|
|                                   |                     (20.8759 MB/s)|
|CSV file                           |surface_flowdatabladeVALIDATION_Blade_24.csv|
|                                   |                     (19.7028 MB/s)|
+-----------------------------------------------------------------------+
+--------------------------------------+
|  Inner_Iter|   Time(sec)|    rms[Rho]|
+--------------------------------------+
|        1710|  1.3853e-01|   -5.168193|
|        1720|  1.3826e-01|   -5.193870|
|        1730|  1.3788e-01|   -5.221385|
|        1740|  1.3752e-01|   -5.218731|
|        1750|  1.3718e-01|   -5.230573|
+-----------------------------------------------------------------------+
|        File Writing Summary       |              Filename             |
+-----------------------------------------------------------------------+
|SU2 binary restart                 |restart_flow_databladeVALIDATION_Blade_24.dat|
|                                   |                     (10148.9 MB/s)|
|Paraview                           |volume_flow_databladeVALIDATION_Blade_24.vtu|
|                                   |                     (1066.93 MB/s)|
|Paraview surface                   |surface_flowdatabladeVALIDATION_Blade_24.vtu|
|                                   |                     (70.4353 MB/s)|
|SU2 ASCII restart                  |restart_flow_databladeVALIDATION_Blade_24.csv|
|                                   |                     (21.3462 MB/s)|
|CSV file                           |surface_flowdatabladeVALIDATION_Blade_24.csv|
|                                   |                     (21.0274 MB/s)|
+-----------------------------------------------------------------------+
+--------------------------------------+
|  Inner_Iter|   Time(sec)|    rms[Rho]|
+--------------------------------------+
|        1760|  1.3849e-01|   -5.229079|
|        1770|  1.3820e-01|   -5.247550|
|        1780|  1.3788e-01|   -5.241530|
|        1790|  1.3760e-01|   -5.243207|
|        1800|  1.3722e-01|   -5.253031|
+-----------------------------------------------------------------------+
|        File Writing Summary       |              Filename             |
+-----------------------------------------------------------------------+
|SU2 binary restart                 |restart_flow_databladeVALIDATION_Blade_24.dat|
|                                   |                     (6158.97 MB/s)|
|Paraview                           |volume_flow_databladeVALIDATION_Blade_24.vtu|
|                                   |                      (903.84 MB/s)|
|Paraview surface                   |surface_flowdatabladeVALIDATION_Blade_24.vtu|
|                                   |                     (73.3676 MB/s)|
|SU2 ASCII restart                  |restart_flow_databladeVALIDATION_Blade_24.csv|
|                                   |                     (20.6012 MB/s)|
|CSV file                           |surface_flowdatabladeVALIDATION_Blade_24.csv|
|                                   |                     (21.7123 MB/s)|
+-----------------------------------------------------------------------+
+--------------------------------------+
|  Inner_Iter|   Time(sec)|    rms[Rho]|
+--------------------------------------+
|        1810|  1.3839e-01|   -5.243634|
|        1820|  1.3804e-01|   -5.246810|
|        1830|  1.3768e-01|   -5.255579|
|        1840|  1.3734e-01|   -5.255212|
|        1850|  1.3703e-01|   -5.240978|
+-----------------------------------------------------------------------+
|        File Writing Summary       |              Filename             |
+-----------------------------------------------------------------------+
|SU2 binary restart                 |restart_flow_databladeVALIDATION_Blade_24.dat|
|                                   |                     (10790.4 MB/s)|
|Paraview                           |volume_flow_databladeVALIDATION_Blade_24.vtu|
|                                   |                     (395.637 MB/s)|
|Paraview surface                   |surface_flowdatabladeVALIDATION_Blade_24.vtu|
|                                   |                     (44.9134 MB/s)|
|SU2 ASCII restart                  |restart_flow_databladeVALIDATION_Blade_24.csv|
|                                   |                     (21.6053 MB/s)|
|CSV file                           |surface_flowdatabladeVALIDATION_Blade_24.csv|
|                                   |                     (21.4075 MB/s)|
+-----------------------------------------------------------------------+
+--------------------------------------+
|  Inner_Iter|   Time(sec)|    rms[Rho]|
+--------------------------------------+
|        1860|  1.3807e-01|   -5.250289|
|        1870|  1.3772e-01|   -5.256313|
|        1880|  1.3744e-01|   -5.255640|
|        1890|  1.3716e-01|   -5.249846|
|        1900|  1.3682e-01|   -5.261092|
+-----------------------------------------------------------------------+
|        File Writing Summary       |              Filename             |
+-----------------------------------------------------------------------+
|SU2 binary restart                 |restart_flow_databladeVALIDATION_Blade_24.dat|
|                                   |                     (14117.4 MB/s)|
|Paraview                           |volume_flow_databladeVALIDATION_Blade_24.vtu|
|                                   |                     (1093.84 MB/s)|
|Paraview surface                   |surface_flowdatabladeVALIDATION_Blade_24.vtu|
|                                   |                     (102.774 MB/s)|
|SU2 ASCII restart                  |restart_flow_databladeVALIDATION_Blade_24.csv|
|                                   |                     (21.1598 MB/s)|
|CSV file                           |surface_flowdatabladeVALIDATION_Blade_24.csv|
|                                   |                     (20.7077 MB/s)|
+-----------------------------------------------------------------------+
+--------------------------------------+
|  Inner_Iter|   Time(sec)|    rms[Rho]|
+--------------------------------------+
|        1910|  1.3782e-01|   -5.266673|
|        1920|  1.3757e-01|   -5.266379|
|        1930|  1.3730e-01|   -5.272317|
|        1940|  1.3710e-01|   -5.291018|
|        1950|  1.3689e-01|   -5.313440|
+-----------------------------------------------------------------------+
|        File Writing Summary       |              Filename             |
+-----------------------------------------------------------------------+
|SU2 binary restart                 |restart_flow_databladeVALIDATION_Blade_24.dat|
|                                   |                     (13505.4 MB/s)|
|Paraview                           |volume_flow_databladeVALIDATION_Blade_24.vtu|
|                                   |                     (1160.26 MB/s)|
|Paraview surface                   |surface_flowdatabladeVALIDATION_Blade_24.vtu|
|                                   |                      (93.622 MB/s)|
|SU2 ASCII restart                  |restart_flow_databladeVALIDATION_Blade_24.csv|
|                                   |                     (21.3609 MB/s)|
|CSV file                           |surface_flowdatabladeVALIDATION_Blade_24.csv|
|                                   |                     (20.9412 MB/s)|
+-----------------------------------------------------------------------+
+--------------------------------------+
|  Inner_Iter|   Time(sec)|    rms[Rho]|
+--------------------------------------+
|        1960|  1.3794e-01|   -5.333433|
|        1970|  1.3773e-01|   -5.355445|
|        1980|  1.3744e-01|   -5.391312|
|        1990|  1.3719e-01|   -5.393731|
|        2000|  1.3699e-01|   -5.403117|
+-----------------------------------------------------------------------+
|        File Writing Summary       |              Filename             |
+-----------------------------------------------------------------------+
|SU2 binary restart                 |restart_flow_databladeVALIDATION_Blade_24.dat|
|                                   |                     (12288.2 MB/s)|
|Paraview                           |volume_flow_databladeVALIDATION_Blade_24.vtu|
|                                   |                     (911.251 MB/s)|
|Paraview surface                   |surface_flowdatabladeVALIDATION_Blade_24.vtu|
|                                   |                     (70.3634 MB/s)|
|SU2 ASCII restart                  |restart_flow_databladeVALIDATION_Blade_24.csv|
|                                   |                      (20.299 MB/s)|
|CSV file                           |surface_flowdatabladeVALIDATION_Blade_24.csv|
|                                   |                     (20.1309 MB/s)|
+-----------------------------------------------------------------------+
+--------------------------------------+
|  Inner_Iter|   Time(sec)|    rms[Rho]|
+--------------------------------------+
|        2010|  1.3817e-01|   -5.404095|
|        2020|  1.3786e-01|   -5.434305|
|        2030|  1.3759e-01|   -5.427113|
|        2040|  1.3731e-01|   -5.392391|
|        2050|  1.3700e-01|   -5.421303|
+-----------------------------------------------------------------------+
|        File Writing Summary       |              Filename             |
+-----------------------------------------------------------------------+
|SU2 binary restart                 |restart_flow_databladeVALIDATION_Blade_24.dat|
|                                   |                        (9970 MB/s)|
|Paraview                           |volume_flow_databladeVALIDATION_Blade_24.vtu|
|                                   |                     (1129.79 MB/s)|
|Paraview surface                   |surface_flowdatabladeVALIDATION_Blade_24.vtu|
|                                   |                     (105.749 MB/s)|
|SU2 ASCII restart                  |restart_flow_databladeVALIDATION_Blade_24.csv|
|                                   |                      (21.517 MB/s)|
|CSV file                           |surface_flowdatabladeVALIDATION_Blade_24.csv|
|                                   |                     (20.0158 MB/s)|
+-----------------------------------------------------------------------+
+--------------------------------------+
|  Inner_Iter|   Time(sec)|    rms[Rho]|
+--------------------------------------+
|        2060|  1.3790e-01|   -5.426374|
|        2070|  1.3769e-01|   -5.383663|
|        2080|  1.3737e-01|   -5.448608|
|        2090|  1.3710e-01|   -5.431099|
|        2100|  1.3680e-01|   -5.464339|
+-----------------------------------------------------------------------+
|        File Writing Summary       |              Filename             |
+-----------------------------------------------------------------------+
|SU2 binary restart                 |restart_flow_databladeVALIDATION_Blade_24.dat|
|                                   |                     (12888.1 MB/s)|
|Paraview                           |volume_flow_databladeVALIDATION_Blade_24.vtu|
|                                   |                     (996.492 MB/s)|
|Paraview surface                   |surface_flowdatabladeVALIDATION_Blade_24.vtu|
|                                   |                     (94.2405 MB/s)|
|SU2 ASCII restart                  |restart_flow_databladeVALIDATION_Blade_24.csv|
|                                   |                     (20.9108 MB/s)|
|CSV file                           |surface_flowdatabladeVALIDATION_Blade_24.csv|
|                                   |                     (19.0639 MB/s)|
+-----------------------------------------------------------------------+
+--------------------------------------+
|  Inner_Iter|   Time(sec)|    rms[Rho]|
+--------------------------------------+
|        2110|  1.3770e-01|   -5.494693|
|        2120|  1.3741e-01|   -5.491957|
|        2130|  1.3714e-01|   -5.433930|
|        2140|  1.3685e-01|   -5.488517|
|        2150|  1.3666e-01|   -5.434674|
+-----------------------------------------------------------------------+
|        File Writing Summary       |              Filename             |
+-----------------------------------------------------------------------+
|SU2 binary restart                 |restart_flow_databladeVALIDATION_Blade_24.dat|
|                                   |                     (12898.4 MB/s)|
|Paraview                           |volume_flow_databladeVALIDATION_Blade_24.vtu|
|                                   |                     (999.958 MB/s)|
|Paraview surface                   |surface_flowdatabladeVALIDATION_Blade_24.vtu|
|                                   |                     (76.9874 MB/s)|
|SU2 ASCII restart                  |restart_flow_databladeVALIDATION_Blade_24.csv|
|                                   |                     (20.7163 MB/s)|
|CSV file                           |surface_flowdatabladeVALIDATION_Blade_24.csv|
|                                   |                     (20.5739 MB/s)|
+-----------------------------------------------------------------------+
+--------------------------------------+
|  Inner_Iter|   Time(sec)|    rms[Rho]|
+--------------------------------------+
|        2160|  1.3757e-01|   -5.492478|
|        2170|  1.3726e-01|   -5.507091|
|        2180|  1.3699e-01|   -5.488829|
|        2190|  1.3673e-01|   -5.502275|
|        2200|  1.3642e-01|   -5.577152|
+-----------------------------------------------------------------------+
|        File Writing Summary       |              Filename             |
+-----------------------------------------------------------------------+
|SU2 binary restart                 |restart_flow_databladeVALIDATION_Blade_24.dat|
|                                   |                     (13029.4 MB/s)|
|Paraview                           |volume_flow_databladeVALIDATION_Blade_24.vtu|
|                                   |                     (1058.78 MB/s)|
|Paraview surface                   |surface_flowdatabladeVALIDATION_Blade_24.vtu|
|                                   |                     (124.329 MB/s)|
|SU2 ASCII restart                  |restart_flow_databladeVALIDATION_Blade_24.csv|
|                                   |                     (21.1404 MB/s)|
|CSV file                           |surface_flowdatabladeVALIDATION_Blade_24.csv|
|                                   |                     (19.2808 MB/s)|
+-----------------------------------------------------------------------+
+--------------------------------------+
|  Inner_Iter|   Time(sec)|    rms[Rho]|
+--------------------------------------+
|        2210|  1.3729e-01|   -5.589578|
|        2220|  1.3710e-01|   -5.514239|
|        2230|  1.3681e-01|   -5.614933|
|        2240|  1.3654e-01|   -5.615585|
|        2250|  1.3630e-01|   -5.562124|
+-----------------------------------------------------------------------+
|        File Writing Summary       |              Filename             |
+-----------------------------------------------------------------------+
|SU2 binary restart                 |restart_flow_databladeVALIDATION_Blade_24.dat|
|                                   |                     (12335.9 MB/s)|
|Paraview                           |volume_flow_databladeVALIDATION_Blade_24.vtu|
|                                   |                     (1022.37 MB/s)|
|Paraview surface                   |surface_flowdatabladeVALIDATION_Blade_24.vtu|
|                                   |                     (86.6842 MB/s)|
|SU2 ASCII restart                  |restart_flow_databladeVALIDATION_Blade_24.csv|
|                                   |                     (21.4232 MB/s)|
|CSV file                           |surface_flowdatabladeVALIDATION_Blade_24.csv|
|                                   |                     (18.6886 MB/s)|
+-----------------------------------------------------------------------+
+--------------------------------------+
|  Inner_Iter|   Time(sec)|    rms[Rho]|
+--------------------------------------+
|        2260|  1.3717e-01|   -5.547343|
|        2270|  1.3688e-01|   -5.592062|
|        2280|  1.3661e-01|   -5.584742|
|        2290|  1.3636e-01|   -5.510468|
|        2300|  1.3618e-01|   -5.609398|
+-----------------------------------------------------------------------+
|        File Writing Summary       |              Filename             |
+-----------------------------------------------------------------------+
|SU2 binary restart                 |restart_flow_databladeVALIDATION_Blade_24.dat|
|                                   |                     (12542.5 MB/s)|
|Paraview                           |volume_flow_databladeVALIDATION_Blade_24.vtu|
|                                   |                     (714.471 MB/s)|
|Paraview surface                   |surface_flowdatabladeVALIDATION_Blade_24.vtu|
|                                   |                     (85.6586 MB/s)|
|SU2 ASCII restart                  |restart_flow_databladeVALIDATION_Blade_24.csv|
|                                   |                     (20.9342 MB/s)|
|CSV file                           |surface_flowdatabladeVALIDATION_Blade_24.csv|
|                                   |                     (19.3827 MB/s)|
+-----------------------------------------------------------------------+
+--------------------------------------+
|  Inner_Iter|   Time(sec)|    rms[Rho]|
+--------------------------------------+
|        2310|  1.3712e-01|   -5.575733|
|        2320|  1.3692e-01|   -5.626240|
|        2330|  1.3678e-01|   -5.651551|
|        2340|  1.3659e-01|   -5.653419|
|        2350|  1.3641e-01|   -5.655985|
+-----------------------------------------------------------------------+
|        File Writing Summary       |              Filename             |
+-----------------------------------------------------------------------+
|SU2 binary restart                 |restart_flow_databladeVALIDATION_Blade_24.dat|
|                                   |                     (10715.2 MB/s)|
|Paraview                           |volume_flow_databladeVALIDATION_Blade_24.vtu|
[...]
+-----------------------------------------------------------------------+
|        File Writing Summary       |              Filename             |
+-----------------------------------------------------------------------+
|SU2 binary restart                 |restart_flow_databladeVALIDATION_Blade_24.dat|
|                                   |                     (12679.9 MB/s)|
|Paraview                           |volume_flow_databladeVALIDATION_Blade_24.vtu|
|                                   |                     (1139.15 MB/s)|
|Paraview surface                   |surface_flowdatabladeVALIDATION_Blade_24.vtu|
|                                   |                     (100.436 MB/s)|
|SU2 ASCII restart                  |restart_flow_databladeVALIDATION_Blade_24.csv|
|                                   |                     (21.3293 MB/s)|
|CSV file                           |surface_flowdatabladeVALIDATION_Blade_24.csv|
|                                   |                     (21.6289 MB/s)|
+-----------------------------------------------------------------------+
+--------------------------------------+
|  Inner_Iter|   Time(sec)|    rms[Rho]|
+--------------------------------------+
|        3510|  1.3556e-01|   -6.638111|
|        3520|  1.3539e-01|   -6.624395|
|        3530|  1.3521e-01|   -6.643009|
|        3540|  1.3502e-01|   -6.654796|
|        3550|  1.3487e-01|   -6.629936|
+-----------------------------------------------------------------------+
|        File Writing Summary       |              Filename             |
+-----------------------------------------------------------------------+
|SU2 binary restart                 |restart_flow_databladeVALIDATION_Blade_24.dat|
|                                   |                       (12593 MB/s)|
|Paraview                           |volume_flow_databladeVALIDATION_Blade_24.vtu|
|                                   |                     (980.945 MB/s)|
|Paraview surface                   |surface_flowdatabladeVALIDATION_Blade_24.vtu|
|                                   |                     (78.2086 MB/s)|
|SU2 ASCII restart                  |restart_flow_databladeVALIDATION_Blade_24.csv|
|                                   |                     (20.6404 MB/s)|
|CSV file                           |surface_flowdatabladeVALIDATION_Blade_24.csv|
|                                   |                     (19.9996 MB/s)|
+-----------------------------------------------------------------------+
+--------------------------------------+
|  Inner_Iter|   Time(sec)|    rms[Rho]|
+--------------------------------------+
|        3560|  1.3544e-01|   -6.656693|
|        3570|  1.3526e-01|   -6.675618|
|        3580|  1.3509e-01|   -6.676897|
|        3590|  1.3496e-01|   -6.668004|
|        3600|  1.3485e-01|   -6.686973|
+-----------------------------------------------------------------------+
|        File Writing Summary       |              Filename             |
+-----------------------------------------------------------------------+
|SU2 binary restart                 |restart_flow_databladeVALIDATION_Blade_24.dat|
|                                   |                     (6793.37 MB/s)|
|Paraview                           |volume_flow_databladeVALIDATION_Blade_24.vtu|
|                                   |                     (534.619 MB/s)|
|Paraview surface                   |surface_flowdatabladeVALIDATION_Blade_24.vtu|
|                                   |                     (86.6842 MB/s)|
|SU2 ASCII restart                  |restart_flow_databladeVALIDATION_Blade_24.csv|
|                                   |                     (19.7378 MB/s)|
|CSV file                           |surface_flowdatabladeVALIDATION_Blade_24.csv|
|                                   |                     (19.0391 MB/s)|
+-----------------------------------------------------------------------+
+--------------------------------------+
|  Inner_Iter|   Time(sec)|    rms[Rho]|
+--------------------------------------+
|        3610|  1.3544e-01|   -6.697522|
|        3620|  1.3531e-01|   -6.663051|
|        3630|  1.3514e-01|   -6.700112|
|        3640|  1.3496e-01|   -6.705855|
|        3650|  1.3481e-01|   -6.695011|
+-----------------------------------------------------------------------+
|        File Writing Summary       |              Filename             |
+-----------------------------------------------------------------------+
|SU2 binary restart                 |restart_flow_databladeVALIDATION_Blade_24.dat|
|                                   |                     (11633.6 MB/s)|
|Paraview                           |volume_flow_databladeVALIDATION_Blade_24.vtu|
|                                   |                     (824.569 MB/s)|
|Paraview surface                   |surface_flowdatabladeVALIDATION_Blade_24.vtu|
|                                   |                        (59.2 MB/s)|
|SU2 ASCII restart                  |restart_flow_databladeVALIDATION_Blade_24.csv|
|                                   |                     (20.9524 MB/s)|
|CSV file                           |surface_flowdatabladeVALIDATION_Blade_24.csv|
|                                   |                     (19.2665 MB/s)|
+-----------------------------------------------------------------------+
+--------------------------------------+
|  Inner_Iter|   Time(sec)|    rms[Rho]|
+--------------------------------------+
|        3660|  1.3538e-01|   -6.682225|
|        3670|  1.3526e-01|   -6.686793|
|        3680|  1.3516e-01|   -6.704559|
|        3690|  1.3507e-01|   -6.721581|
|        3700|  1.3497e-01|   -6.733139|
+-----------------------------------------------------------------------+
|        File Writing Summary       |              Filename             |
+-----------------------------------------------------------------------+
|SU2 binary restart                 |restart_flow_databladeVALIDATION_Blade_24.dat|
|                                   |                     (6534.55 MB/s)|
|Paraview                           |volume_flow_databladeVALIDATION_Blade_24.vtu|
|                                   |                     (1057.22 MB/s)|
|Paraview surface                   |surface_flowdatabladeVALIDATION_Blade_24.vtu|
|                                   |                     (99.4825 MB/s)|
|SU2 ASCII restart                  |restart_flow_databladeVALIDATION_Blade_24.csv|
|                                   |                      (21.284 MB/s)|
|CSV file                           |surface_flowdatabladeVALIDATION_Blade_24.csv|
|                                   |                     (22.1591 MB/s)|
+-----------------------------------------------------------------------+
+--------------------------------------+
|  Inner_Iter|   Time(sec)|    rms[Rho]|
+--------------------------------------+
|        3710|  1.3548e-01|   -6.769012|
|        3720|  1.3531e-01|   -6.772868|
|        3730|  1.3519e-01|   -6.742235|
|        3740|  1.3509e-01|   -6.748393|
|        3750|  1.3496e-01|   -6.745015|
+-----------------------------------------------------------------------+
|        File Writing Summary       |              Filename             |
+-----------------------------------------------------------------------+
|SU2 binary restart                 |restart_flow_databladeVALIDATION_Blade_24.dat|
|                                   |                     (13158.4 MB/s)|
|Paraview                           |volume_flow_databladeVALIDATION_Blade_24.vtu|
|                                   |                     (1023.76 MB/s)|
|Paraview surface                   |surface_flowdatabladeVALIDATION_Blade_24.vtu|
|                                   |                     (102.259 MB/s)|
|SU2 ASCII restart                  |restart_flow_databladeVALIDATION_Blade_24.csv|
|                                   |                     (21.4182 MB/s)|
|CSV file                           |surface_flowdatabladeVALIDATION_Blade_24.csv|
|                                   |                     (20.2158 MB/s)|
+-----------------------------------------------------------------------+
+--------------------------------------+
|  Inner_Iter|   Time(sec)|    rms[Rho]|
+--------------------------------------+
|        3760|  1.3547e-01|   -6.789490|
|        3770|  1.3530e-01|   -6.802159|
|        3780|  1.3514e-01|   -6.794506|
|        3790|  1.3500e-01|   -6.783221|
|        3800|  1.3488e-01|   -6.798848|
+-----------------------------------------------------------------------+
|        File Writing Summary       |              Filename             |
+-----------------------------------------------------------------------+
|SU2 binary restart                 |restart_flow_databladeVALIDATION_Blade_24.dat|
|                                   |                     (13415.9 MB/s)|
|Paraview                           |volume_flow_databladeVALIDATION_Blade_24.vtu|
|                                   |                     (1050.79 MB/s)|
|Paraview surface                   |surface_flowdatabladeVALIDATION_Blade_24.vtu|
|                                   |                     (87.8113 MB/s)|
|SU2 ASCII restart                  |restart_flow_databladeVALIDATION_Blade_24.csv|
|                                   |                       (21.18 MB/s)|
|CSV file                           |surface_flowdatabladeVALIDATION_Blade_24.csv|
|                                   |                     (19.2088 MB/s)|
+-----------------------------------------------------------------------+
+--------------------------------------+
|  Inner_Iter|   Time(sec)|    rms[Rho]|
+--------------------------------------+
|        3810|  1.3538e-01|   -6.854921|
|        3820|  1.3521e-01|   -6.863711|
|        3830|  1.3509e-01|   -6.816922|
|        3840|  1.3498e-01|   -6.825527|
|        3850|  1.3480e-01|   -6.869050|
+-----------------------------------------------------------------------+
|        File Writing Summary       |              Filename             |
+-----------------------------------------------------------------------+
|SU2 binary restart                 |restart_flow_databladeVALIDATION_Blade_24.dat|
|                                   |                     (12916.1 MB/s)|
|Paraview                           |volume_flow_databladeVALIDATION_Blade_24.vtu|
|                                   |                     (1056.44 MB/s)|
|Paraview surface                   |surface_flowdatabladeVALIDATION_Blade_24.vtu|
|                                   |                     (82.8474 MB/s)|
|SU2 ASCII restart                  |restart_flow_databladeVALIDATION_Blade_24.csv|
|                                   |                     (20.8974 MB/s)|
|CSV file                           |surface_flowdatabladeVALIDATION_Blade_24.csv|
|                                   |                     (19.8167 MB/s)|
+-----------------------------------------------------------------------+
+--------------------------------------+
|  Inner_Iter|   Time(sec)|    rms[Rho]|
+--------------------------------------+
|        3860|  1.3531e-01|   -6.858800|
|        3870|  1.3517e-01|   -6.813332|
|        3880|  1.3500e-01|   -6.869601|
|        3890|  1.3483e-01|   -6.880976|
|        3900|  1.3468e-01|   -6.877902|
+-----------------------------------------------------------------------+
|        File Writing Summary       |              Filename             |
+-----------------------------------------------------------------------+
|SU2 binary restart                 |restart_flow_databladeVALIDATION_Blade_24.dat|
|                                   |                     (12293.3 MB/s)|
|Paraview                           |volume_flow_databladeVALIDATION_Blade_24.vtu|
|                                   |                     (1043.61 MB/s)|
|Paraview surface                   |surface_flowdatabladeVALIDATION_Blade_24.vtu|
|                                   |                     (104.448 MB/s)|
|SU2 ASCII restart                  |restart_flow_databladeVALIDATION_Blade_24.csv|
|                                   |                     (21.2673 MB/s)|
|CSV file                           |surface_flowdatabladeVALIDATION_Blade_24.csv|
|                                   |                     (18.5877 MB/s)|
+-----------------------------------------------------------------------+
+--------------------------------------+
|  Inner_Iter|   Time(sec)|    rms[Rho]|
+--------------------------------------+
|        3910|  1.3520e-01|   -6.858668|
|        3920|  1.3502e-01|   -6.923918|
|        3930|  1.3486e-01|   -6.938954|
|        3940|  1.3471e-01|   -6.917547|
|        3950|  1.3459e-01|   -6.914699|
+-----------------------------------------------------------------------+
|        File Writing Summary       |              Filename             |
+-----------------------------------------------------------------------+
|SU2 binary restart                 |restart_flow_databladeVALIDATION_Blade_24.dat|
|                                   |                     (12771.7 MB/s)|
|Paraview                           |volume_flow_databladeVALIDATION_Blade_24.vtu|
|                                   |                     (1078.67 MB/s)|
|Paraview surface                   |surface_flowdatabladeVALIDATION_Blade_24.vtu|
|                                   |                     (123.041 MB/s)|
|SU2 ASCII restart                  |restart_flow_databladeVALIDATION_Blade_24.csv|
|                                   |                     (20.9437 MB/s)|
|CSV file                           |surface_flowdatabladeVALIDATION_Blade_24.csv|
|                                   |                     (21.6409 MB/s)|
+-----------------------------------------------------------------------+
+--------------------------------------+
|  Inner_Iter|   Time(sec)|    rms[Rho]|
+--------------------------------------+
|        3960|  1.3508e-01|   -6.939674|
|        3970|  1.3494e-01|   -6.909873|
|        3980|  1.3479e-01|   -6.904414|
|        3990|  1.3463e-01|   -6.925951|
|        4000|  1.3448e-01|   -6.911974|
+-----------------------------------------------------------------------+
|        File Writing Summary       |              Filename             |
+-----------------------------------------------------------------------+
|SU2 binary restart                 |restart_flow_databladeVALIDATION_Blade_24.dat|
|                                   |                       (11928 MB/s)|
|Paraview                           |volume_flow_databladeVALIDATION_Blade_24.vtu|
|                                   |                     (1116.55 MB/s)|
|Paraview surface                   |surface_flowdatabladeVALIDATION_Blade_24.vtu|
|                                   |                     (98.3944 MB/s)|
|SU2 ASCII restart                  |restart_flow_databladeVALIDATION_Blade_24.csv|
|                                   |                     (21.2561 MB/s)|
|CSV file                           |surface_flowdatabladeVALIDATION_Blade_24.csv|
|                                   |                     (20.8108 MB/s)|
+-----------------------------------------------------------------------+
+--------------------------------------+
|  Inner_Iter|   Time(sec)|    rms[Rho]|
+--------------------------------------+
|        4010|  1.3497e-01|   -6.882972|
|        4020|  1.3482e-01|   -6.919511|
|        4030|  1.3465e-01|   -6.947926|
|        4040|  1.3451e-01|   -6.928092|
|        4050|  1.3439e-01|   -6.945439|
+-----------------------------------------------------------------------+
|        File Writing Summary       |              Filename             |
+-----------------------------------------------------------------------+
|SU2 binary restart                 |restart_flow_databladeVALIDATION_Blade_24.dat|
|                                   |                     (8357.35 MB/s)|
|Paraview                           |volume_flow_databladeVALIDATION_Blade_24.vtu|
|                                   |                      (980.96 MB/s)|
|Paraview surface                   |surface_flowdatabladeVALIDATION_Blade_24.vtu|
|                                   |                     (87.6039 MB/s)|
|SU2 ASCII restart                  |restart_flow_databladeVALIDATION_Blade_24.csv|
|                                   |                     (21.2654 MB/s)|
|CSV file                           |surface_flowdatabladeVALIDATION_Blade_24.csv|
|                                   |                     (20.5041 MB/s)|
+-----------------------------------------------------------------------+
+--------------------------------------+
|  Inner_Iter|   Time(sec)|    rms[Rho]|
+--------------------------------------+
|        4056|  1.3490e-01|   -7.000890|

----------------------------- Solver Exit -------------------------------
All convergence criteria satisfied.
+-----------------------------------------------------------------------+
|      Convergence Field     |     Value    |   Criterion  |  Converged |
+-----------------------------------------------------------------------+
|                    rms[Rho]|      -7.00089|          < -7|         Yes|
+-----------------------------------------------------------------------+
-------------------------------------------------------------------------
+-----------------------------------------------------------------------+
|        File Writing Summary       |              Filename             |
+-----------------------------------------------------------------------+
|SU2 binary restart                 |restart_flow_databladeVALIDATION_Blade_24.dat|
|                                   |                     (13412.9 MB/s)|
|Paraview                           |volume_flow_databladeVALIDATION_Blade_24.vtu|
|                                   |                     (973.286 MB/s)|
|Paraview surface                   |surface_flowdatabladeVALIDATION_Blade_24.vtu|
|                                   |                     (90.6134 MB/s)|
|SU2 ASCII restart                  |restart_flow_databladeVALIDATION_Blade_24.csv|
|                                   |                     (21.1563 MB/s)|
|CSV file                           |surface_flowdatabladeVALIDATION_Blade_24.csv|
|                                   |                     (20.5371 MB/s)|
+-----------------------------------------------------------------------+

--------------------------- Finalizing Solver ---------------------------
Deleted CNumerics container.
Deleted CIntegration container.
Deleted CSolver container.
Deleted CIteration container.
Deleted CInterface container.
Deleted CGeometry container.
Deleted CFreeFormDefBox class.
Deleted CSurfaceMovement class.
Deleted CVolumetricMovement class.
Deleted CConfig container.
Deleted nInst container.
Deleted COutput class.
-------------------------------------------------------------------------


-------------------------- Performance Summary --------------------------
Simulation totals:
   Wall-clock time (hrs):    0.152938 |            Core-hrs:     1.83525
                   Cores:          12 |          DOFs/point:           5
             Points/core:     5620.92 |   Ghost points/core:     167.667
 Ghost/Owned Point Ratio:   0.0298291 | 

Preprocessing phase:
       Preproc. Time (s):    0.698045 |   Preproc. Time (%):    0.126785

Compute phase:
        Compute Time (s):     547.315 |    Compute Time (%):     99.4078
         Iteration count:        4057 |         Avg. s/iter:    0.134906
     Core-s/iter/Mpoints:     23.3056 |           Mpoints/s:    0.514898

Output phase:
         Output Time (s):     2.56237 |     Output Time (%):    0.465398
            Output count:           1 |       Avg. s/output:     2.56237
 Restart Aggr. BW (MB/s):      924938 |           MB/s/core:     77078.1
-------------------------------------------------------------------------


------------------------- Exit Success (SU2_CFD) ------------------------

