
-------------------------------------------------------------------------
|    ___ _   _ ___                                                      |
|   / __| | | |_  )   Release 8.0.1 "Harrier"                           |
|   \__ \ |_| |/ /                                                      |
|   |___/\___//___|   Suite (Computational Fluid Dynamics Code)         |
|                                                                       |
-------------------------------------------------------------------------
| SU2 Project Website: https://su2code.github.io                        |
|                                                                       |
| The SU2 Project is maintained by the SU2 Foundation                   |
| (http://su2foundation.org)                                            |
-------------------------------------------------------------------------
| Copyright 2012-2024, SU2 Contributors                                 |
|                                                                       |
| SU2 is free software; you can redistribute it and/or                  |
| modify it under the terms of the GNU Lesser General Public            |
| License as published by the Free Software Foundation; either          |
| version 2.1 of the License, or (at your option) any later version.    |
|                                                                       |
| SU2 is distributed in the hope that it will be useful,                |
| but WITHOUT ANY WARRANTY; without even the implied warranty of        |
| MERCHANTABILITY or FITNESS FOR A PARTICULAR PURPOSE. See the GNU      |
| Lesser General Public License for more details.                       |
|                                                                       |
| You should have received a copy of the GNU Lesser General Public      |
| License along with SU2. If not, see <http://www.gnu.org/licenses/>.   |
-------------------------------------------------------------------------

Parsing config file for zone 0

----------------- Physical Case Definition ( Zone 0 ) -------------------
Compressible RANS equations.
Turbulence model: Spalart-Allmaras-noft2-BCM
Hybrid RANS/LES: No Hybrid RANS/LES
Mach number: 0.5.
Angle of attack (AoA): -40 deg, and angle of sideslip (AoS): 0 deg.
Reynolds number: 600000. Reference length 1.0014.
No restart solution, use the values at infinity (freestream).
Dimensional simulation.
The reference area will be computed using y(2D) or z(3D) projection.
The semi-span will be computed using the max y(3D) value.
The reference length is 1.0014 m.
Reference origin for moment evaluation is (0, 0, 0).
Surface(s) where the force coefficients are evaluated: blade1.

Surface(s) plotted in the output file: blade1.
Surface(s) to be analyzed in detail: inlet, outlet, blade1.
Input mesh file name: cascade2D_databladeVALIDATION_Blade_14.su2

--------------- Space Numerical Integration ( Zone 0 ) ------------------
Jameson-Schmidt-Turkel scheme (2nd order in space) for the flow inviscid terms.
JST viscous coefficients (2nd & 4th): 0.5, 0.02.
The method includes a grid stretching correction (p = 0.3).
Scalar upwind solver for the turbulence model.
First order integration in space.
Average of gradients with correction (viscous flow terms).
Average of gradients with correction (viscous turbulence terms).
Gradient for upwind reconstruction: inverse-distance weighted Least-Squares.
Gradient for viscous and source terms: inverse-distance weighted Least-Squares.

--------------- Time Numerical Integration  ( Zone 0 ) ------------------
Local time stepping (steady state simulation).
Euler implicit method for the flow equations.
FGMRES is used for solving the linear system.
Using a LU-SGS preconditioning.
Convergence criteria of the linear solver: 0.0001.
Max number of linear iterations: 10.
V Multigrid Cycle, with 3 multigrid levels.
Damping factor for the residual restriction: 0.75.
Damping factor for the correction prolongation: 0.75.
CFL adaptation. Factor down: 0.1, factor up: 1.2,
                lower limit: 0.1, upper limit: 100,
                acceptable linear residual: 0.001.
+-------------------------------------------+
|  MG Level| Presmooth|PostSmooth|CorrectSmo|
+-------------------------------------------+
|         0|         1|         0|         1|
|         1|         2|         2|         2|
|         2|         3|         3|         3|
|         3|         3|         0|         0|
+-------------------------------------------+
Courant-Friedrichs-Lewy number:       12
Euler implicit time integration for the turbulence model.

------------------ Convergence Criteria  ( Zone 0 ) ---------------------
Maximum number of solver subiterations: 7000.
Begin convergence monitoring at iteration 500.
Residual minimum value: 1e-7.
Cauchy series min. value: 1e-10.
Number of Cauchy elements: 100.
Begin windowed time average at iteration 0.

-------------------- Output Information ( Zone 0 ) ----------------------
File writing frequency: 
+------------------------------------+
|                     File| Frequency|
+------------------------------------+
|                  RESTART|        50|
|                 PARAVIEW|        50|
|         SURFACE_PARAVIEW|        50|
|                      CSV|        50|
|              SURFACE_CSV|        50|
+------------------------------------+
Writing the convergence history file every 1 inner iterations.
Writing the screen convergence history every 10 inner iterations.
The tabular file format is CSV (.csv).
Convergence history file name: history_databladeVALIDATION_Blade_14.
Forces breakdown file name: forces_breakdown.dat.
Surface file name: surface_flowdatabladeVALIDATION_Blade_14.
Volume file name: volume_flow_databladeVALIDATION_Blade_14.
Restart file name: restart_flow_databladeVALIDATION_Blade_14.dat.

------------- Config File Boundary Information ( Zone 0 ) ---------------
+-----------------------------------------------------------------------+
|                        Marker Type|                        Marker Name|
+-----------------------------------------------------------------------+
|                  Periodic boundary|               symmetricWallsBOTTOM|
|                                   |                  symmetricWallsTOP|
+-----------------------------------------------------------------------+
|                     Inlet boundary|                              inlet|
+-----------------------------------------------------------------------+
|                    Outlet boundary|                             outlet|
+-----------------------------------------------------------------------+
|                     Heat flux wall|                             blade1|
|                                   |                             blade2|
+-----------------------------------------------------------------------+

-------------------- Output Preprocessing ( Zone 0 ) --------------------
  Info: Ignoring the following screen output fields:
  LINSOL_ITER_TRANS, LINSOL_RESIDUAL_TRANS
Screen output fields: INNER_ITER, WALL_TIME, RMS_DENSITY
  Info: Ignoring the following history output groups:
  RMS_TKE, RMS_DISSIPATION
History output group(s): INNER_ITER, WALL_TIME, RMS_DENSITY, RMS_MOMENTUM-X, RMS_ENERGY, LINSOL, CFL_NUMBER, FLOW_COEFF_SURF, AERO_COEFF_SURF
Convergence field(s): RMS_DENSITY
Warning: No (valid) fields chosen for time convergence monitoring. Time convergence monitoring inactive.
Volume output fields: COORDINATES, SOLUTION, PRIMITIVE, RESIDUAL, TIMESTEP, MESH_QUALITY, VORTEX_IDENTIFICATION

------------------- Geometry Preprocessing ( Zone 0 ) -------------------
Two dimensional problem.
58722 grid points before partitioning.
87084 volume elements before partitioning.
5 surface markers.
26 boundary elements in index 0 (Marker = inlet).
329 boundary elements in index 1 (Marker = symmetricWallsBOTTOM).
329 boundary elements in index 2 (Marker = symmetricWallsTOP).
26 boundary elements in index 3 (Marker = outlet).
1186 boundary elements in index 4 (Marker = blade1).
Executing the partitioning functions.
Building the graph adjacency structure.
Calling ParMETIS... graph partitioning complete (1368 edge cuts).
Distributing ParMETIS coloring.
Rebalancing vertices.
Rebalancing volume element connectivity.
Rebalancing markers and surface elements.
60438 vertices including ghost points. 
88442 interior elements including halo cells. 
59644 triangles.
28798 quadrilaterals.
Establishing MPI communication patterns.
Setting point connectivity.
Renumbering points (Reverse Cuthill McKee Ordering).
Recomputing point connectivity.
Setting element connectivity.
Checking the numerical grid orientation.
All volume elements are correctly orientend.
There has been a re-orientation of 956 LINE surface elements.
Identifying edges and vertices.
Setting the control volume structure.
Area of the computational grid: 3.35046.
Searching for the closest normal neighbors to the surfaces.
Storing a mapping from global to local point index.
Compute the surface curvature.
Max K: 133.951. Mean K: 4.1602. Standard deviation K: 14.1078.
Checking for periodicity.
WARNING: Periodicity has been detected. Disabling multigrid. 
Computing mesh quality statistics for the dual control volumes.
+--------------------------------------------------------------+
|           Mesh Quality Metric|        Minimum|        Maximum|
+--------------------------------------------------------------+
|    Orthogonality Angle (deg.)|        46.0808|        89.9999|
|     CV Face Area Aspect Ratio|        1.00002|        290.215|
|           CV Sub-Volume Ratio|              1|        24.2102|
+--------------------------------------------------------------+
Finding max control volume width.
Communicating number of neighbors.
Reference length = 1.02127 m.
Wetted area = 2.9512 m.
Area projection in the x-plane = 0.896401 m, y-plane = 1.02127 m.
Max. coordinate in the x-direction = 1.01342 m, y-direction = 0.578706 m.
Min. coordinate in the x-direction = -0.00787529 m, y-direction = -0.300564 m.
Matching the periodic boundary points for marker pair 1.
 Matched 660 points with a max distance of: 6.45535e-14.
Computing wall distances.

-------------------- Solver Preprocessing ( Zone 0 ) --------------------
Viscous flow: Computing pressure using the ideal gas law
based on the free-stream temperature and a density computed
from the Reynolds number.
Force coefficients computed using free-stream values.

-- Models:
+------------------------------------------------------------------------------+
|          Viscosity Model|        Conductivity Model|              Fluid Model|
+------------------------------------------------------------------------------+
|               SUTHERLAND|          CONSTANT_PRANDTL|                IDEAL_GAS|
+------------------------------------------------------------------------------+
-- Fluid properties:
+------------------------------------------------------------------------------+
|                  Name|    Dim. value|    Ref. value|      Unit|Non-dim. value|
+------------------------------------------------------------------------------+
|        Ref. Viscosity|     1.716e-05|             1|   N.s/m^2|     1.716e-05|
|      Sutherland Temp.|        273.15|             1|         K|        273.15|
|     Sutherland Const.|         110.4|             1|         K|         110.4|
+------------------------------------------------------------------------------+
|        Prandtl (Lam.)|             -|             -|         -|          0.72|
|       Prandtl (Turb.)|             -|             -|         -|           0.9|
+------------------------------------------------------------------------------+
|          Gas Constant|       287.058|             1|  N.m/kg.K|       287.058|
|      Spec. Heat Ratio|             -|             -|         -|           1.4|
+------------------------------------------------------------------------------+
-- Initial and free-stream conditions:
+------------------------------------------------------------------------------+
|                  Name|    Dim. value|    Ref. value|      Unit|Non-dim. value|
+------------------------------------------------------------------------------+
|       Static Pressure|       5486.12|             1|        Pa|       5486.12|
|               Density|     0.0637052|             1|    kg/m^3|     0.0637052|
|           Temperature|           300|             1|         K|           300|
|          Total Energy|        230364|             1|   m^2/s^2|        230364|
|            Velocity-X|       132.994|             1|       m/s|       132.994|
|            Velocity-Y|      -111.596|             1|       m/s|      -111.596|
|    Velocity Magnitude|       173.612|             1|       m/s|       173.612|
+------------------------------------------------------------------------------+
|             Viscosity|   1.84592e-05|             1|   N.s/m^2|   1.84592e-05|
|          Conductivity|             -|             1|   W/m^2.K|             -|
|     Turb. Kin. Energy|       55.3843|             1|   m^2/s^2|       55.3843|
|     Spec. Dissipation|   1.91139e+06|             1|       1/s|   1.91139e+06|
+------------------------------------------------------------------------------+
|           Mach Number|             -|             -|         -|           0.5|
|       Reynolds Number|             -|             -|         -|        600000|
+------------------------------------------------------------------------------+
Initialize Jacobian structure (Navier-Stokes). MG level: 0.
Initialize Jacobian structure (SA model).

------------------- Numerics Preprocessing ( Zone 0 ) -------------------

----------------- Integration Preprocessing ( Zone 0 ) ------------------

------------------- Iteration Preprocessing ( Zone 0 ) ------------------
Euler/Navier-Stokes/RANS fluid iteration.

------------------------------ Begin Solver -----------------------------

Simulation Run using the Single-zone Driver
WARNING: SU2 was not compiled for an AVX-capable architecture. Performance could be better,
         see https://su2code.github.io/docs_v7/Build-SU2-Linux-MacOS/#compiler-optimizations
+--------------------------------------+
|  Inner_Iter|   Time(sec)|    rms[Rho]|
+--------------------------------------+
|           0|  8.5738e-02|   -2.467687|
|          10|  6.3786e-02|   -3.109423|
|          20|  6.4309e-02|   -2.913079|
|          30|  6.4282e-02|   -2.937266|
|          40|  6.2459e-02|   -2.849126|
|          50|  6.3086e-02|   -2.949880|
+-----------------------------------------------------------------------+
|        File Writing Summary       |              Filename             |
+-----------------------------------------------------------------------+
|SU2 binary restart                 |restart_flow_databladeVALIDATION_Blade_14.dat|
|                                   |                     (8328.01 MB/s)|
|Paraview                           |volume_flow_databladeVALIDATION_Blade_14.vtu|
|                                   |                     (945.942 MB/s)|
|Paraview surface                   |surface_flowdatabladeVALIDATION_Blade_14.vtu|
|                                   |                     (100.805 MB/s)|
|SU2 ASCII restart                  |restart_flow_databladeVALIDATION_Blade_14.csv|
|                                   |                     (21.8712 MB/s)|
|CSV file                           |surface_flowdatabladeVALIDATION_Blade_14.csv|
|                                   |                     (16.7383 MB/s)|
+-----------------------------------------------------------------------+
+--------------------------------------+
|  Inner_Iter|   Time(sec)|    rms[Rho]|
+--------------------------------------+
|          60|  1.0152e-01|   -3.014400|
|          70|  9.5441e-02|   -3.083436|
|          80|  9.1394e-02|   -3.034837|
|          90|  8.8759e-02|   -2.932231|
|         100|  8.6677e-02|   -2.947983|
+-----------------------------------------------------------------------+
|        File Writing Summary       |              Filename             |
+-----------------------------------------------------------------------+
|SU2 binary restart                 |restart_flow_databladeVALIDATION_Blade_14.dat|
|                                   |                     (12549.3 MB/s)|
|Paraview                           |volume_flow_databladeVALIDATION_Blade_14.vtu|
|                                   |                     (966.855 MB/s)|
|Paraview surface                   |surface_flowdatabladeVALIDATION_Blade_14.vtu|
|                                   |                     (82.4282 MB/s)|
|SU2 ASCII restart                  |restart_flow_databladeVALIDATION_Blade_14.csv|
|                                   |                     (21.7135 MB/s)|
|CSV file                           |surface_flowdatabladeVALIDATION_Blade_14.csv|
|                                   |                     (20.9502 MB/s)|
+-----------------------------------------------------------------------+
+--------------------------------------+
|  Inner_Iter|   Time(sec)|    rms[Rho]|
+--------------------------------------+
|         110|  1.0387e-01|   -3.059851|
|         120|  1.0040e-01|   -3.002159|
|         130|  9.7610e-02|   -2.925329|
|         140|  9.5257e-02|   -3.008660|
|         150|  9.2742e-02|   -3.098554|
+-----------------------------------------------------------------------+
|        File Writing Summary       |              Filename             |
+-----------------------------------------------------------------------+
|SU2 binary restart                 |restart_flow_databladeVALIDATION_Blade_14.dat|
|                                   |                     (11941.8 MB/s)|
|Paraview                           |volume_flow_databladeVALIDATION_Blade_14.vtu|
|                                   |                     (1014.32 MB/s)|
|Paraview surface                   |surface_flowdatabladeVALIDATION_Blade_14.vtu|
|                                   |                     (89.7599 MB/s)|
|SU2 ASCII restart                  |restart_flow_databladeVALIDATION_Blade_14.csv|
|                                   |                     (22.1165 MB/s)|
|CSV file                           |surface_flowdatabladeVALIDATION_Blade_14.csv|
|                                   |                     (20.5079 MB/s)|
+-----------------------------------------------------------------------+
+--------------------------------------+
|  Inner_Iter|   Time(sec)|    rms[Rho]|
+--------------------------------------+
|         160|  1.0381e-01|   -3.167204|
|         170|  1.0178e-01|   -3.191708|
|         180|  1.0011e-01|   -3.214825|
|         190|  9.8022e-02|   -3.226419|
|         200|  9.6393e-02|   -3.180328|
+-----------------------------------------------------------------------+
|        File Writing Summary       |              Filename             |
+-----------------------------------------------------------------------+
|SU2 binary restart                 |restart_flow_databladeVALIDATION_Blade_14.dat|
|                                   |                     (4973.53 MB/s)|
|Paraview                           |volume_flow_databladeVALIDATION_Blade_14.vtu|
|                                   |                     (944.395 MB/s)|
|Paraview surface                   |surface_flowdatabladeVALIDATION_Blade_14.vtu|
|                                   |                     (103.351 MB/s)|
|SU2 ASCII restart                  |restart_flow_databladeVALIDATION_Blade_14.csv|
|                                   |                     (21.3886 MB/s)|
|CSV file                           |surface_flowdatabladeVALIDATION_Blade_14.csv|
|                                   |                     (19.5873 MB/s)|
+-----------------------------------------------------------------------+
+--------------------------------------+
|  Inner_Iter|   Time(sec)|    rms[Rho]|
+--------------------------------------+
|         210|  1.0547e-01|   -3.155935|
|         220|  1.0330e-01|   -3.237739|
|         230|  1.0161e-01|   -3.210368|
|         240|  1.0032e-01|   -3.194207|
|         250|  9.8821e-02|   -3.332809|
+-----------------------------------------------------------------------+
|        File Writing Summary       |              Filename             |
+-----------------------------------------------------------------------+
|SU2 binary restart                 |restart_flow_databladeVALIDATION_Blade_14.dat|
|                                   |                     (11100.2 MB/s)|
|Paraview                           |volume_flow_databladeVALIDATION_Blade_14.vtu|
|                                   |                     (962.724 MB/s)|
|Paraview surface                   |surface_flowdatabladeVALIDATION_Blade_14.vtu|
|                                   |                     (91.6294 MB/s)|
|SU2 ASCII restart                  |restart_flow_databladeVALIDATION_Blade_14.csv|
|                                   |                     (21.8014 MB/s)|
|CSV file                           |surface_flowdatabladeVALIDATION_Blade_14.csv|
|                                   |                     (22.0153 MB/s)|
+-----------------------------------------------------------------------+
+--------------------------------------+
|  Inner_Iter|   Time(sec)|    rms[Rho]|
+--------------------------------------+
|         260|  1.0567e-01|   -3.357095|
|         270|  1.0406e-01|   -3.335853|
|         280|  1.0275e-01|   -3.240492|
|         290|  1.0128e-01|   -3.326757|
|         300|  1.0020e-01|   -3.260880|
+-----------------------------------------------------------------------+
|        File Writing Summary       |              Filename             |
+-----------------------------------------------------------------------+
|SU2 binary restart                 |restart_flow_databladeVALIDATION_Blade_14.dat|
|                                   |                     (13676.4 MB/s)|
|Paraview                           |volume_flow_databladeVALIDATION_Blade_14.vtu|
|                                   |                     (902.914 MB/s)|
|Paraview surface                   |surface_flowdatabladeVALIDATION_Blade_14.vtu|
|                                   |                      (75.935 MB/s)|
|SU2 ASCII restart                  |restart_flow_databladeVALIDATION_Blade_14.csv|
|                                   |                     (21.4242 MB/s)|
|CSV file                           |surface_flowdatabladeVALIDATION_Blade_14.csv|
|                                   |                      (21.979 MB/s)|
+-----------------------------------------------------------------------+
+--------------------------------------+
|  Inner_Iter|   Time(sec)|    rms[Rho]|
+--------------------------------------+
|         310|  1.0645e-01|   -2.989198|
|         320|  1.0511e-01|   -3.206887|
|         330|  1.0392e-01|   -3.284701|
|         340|  1.0282e-01|   -3.230415|
|         350|  1.0195e-01|   -3.349698|
+-----------------------------------------------------------------------+
|        File Writing Summary       |              Filename             |
+-----------------------------------------------------------------------+
|SU2 binary restart                 |restart_flow_databladeVALIDATION_Blade_14.dat|
|                                   |                     (9065.15 MB/s)|
|Paraview                           |volume_flow_databladeVALIDATION_Blade_14.vtu|
|                                   |                      (907.91 MB/s)|
|Paraview surface                   |surface_flowdatabladeVALIDATION_Blade_14.vtu|
|                                   |                     (84.8327 MB/s)|
|SU2 ASCII restart                  |restart_flow_databladeVALIDATION_Blade_14.csv|
|                                   |                     (21.4562 MB/s)|
|CSV file                           |surface_flowdatabladeVALIDATION_Blade_14.csv|
|                                   |                     (21.7194 MB/s)|
+-----------------------------------------------------------------------+
+--------------------------------------+
|  Inner_Iter|   Time(sec)|    rms[Rho]|
+--------------------------------------+
|         360|  1.0697e-01|   -3.549225|
|         370|  1.0586e-01|   -3.425917|
|         380|  1.0484e-01|   -3.410314|
|         390|  1.0380e-01|   -3.567162|
|         400|  1.0273e-01|   -3.570444|
+-----------------------------------------------------------------------+
|        File Writing Summary       |              Filename             |
+-----------------------------------------------------------------------+
|SU2 binary restart                 |restart_flow_databladeVALIDATION_Blade_14.dat|
|                                   |                     (12137.9 MB/s)|
|Paraview                           |volume_flow_databladeVALIDATION_Blade_14.vtu|
|                                   |                     (893.968 MB/s)|
|Paraview surface                   |surface_flowdatabladeVALIDATION_Blade_14.vtu|
|                                   |                     (114.113 MB/s)|
|SU2 ASCII restart                  |restart_flow_databladeVALIDATION_Blade_14.csv|
|                                   |                     (22.0013 MB/s)|
|CSV file                           |surface_flowdatabladeVALIDATION_Blade_14.csv|
|                                   |                     (20.5556 MB/s)|
+-----------------------------------------------------------------------+
+--------------------------------------+
|  Inner_Iter|   Time(sec)|    rms[Rho]|
+--------------------------------------+
|         410|  1.0711e-01|   -3.499254|
|         420|  1.0622e-01|   -3.522376|
|         430|  1.0515e-01|   -3.635848|
|         440|  1.0436e-01|   -3.406018|
|         450|  1.0347e-01|   -3.505672|
+-----------------------------------------------------------------------+
|        File Writing Summary       |              Filename             |
+-----------------------------------------------------------------------+
|SU2 binary restart                 |restart_flow_databladeVALIDATION_Blade_14.dat|
|                                   |                     (8731.52 MB/s)|
|Paraview                           |volume_flow_databladeVALIDATION_Blade_14.vtu|
|                                   |                     (966.395 MB/s)|
|Paraview surface                   |surface_flowdatabladeVALIDATION_Blade_14.vtu|
|                                   |                     (82.7394 MB/s)|
|SU2 ASCII restart                  |restart_flow_databladeVALIDATION_Blade_14.csv|
|                                   |                     (21.5729 MB/s)|
|CSV file                           |surface_flowdatabladeVALIDATION_Blade_14.csv|
|                                   |                     (22.0658 MB/s)|
+-----------------------------------------------------------------------+
+--------------------------------------+
|  Inner_Iter|   Time(sec)|    rms[Rho]|
+--------------------------------------+
|         460|  1.0728e-01|   -3.565223|
|         470|  1.0638e-01|   -3.493422|
|         480|  1.0569e-01|   -3.396350|
|         490|  1.0481e-01|   -3.588826|
|         500|  1.0402e-01|   -3.478731|
+-----------------------------------------------------------------------+
|        File Writing Summary       |              Filename             |
+-----------------------------------------------------------------------+
|SU2 binary restart                 |restart_flow_databladeVALIDATION_Blade_14.dat|
|                                   |                     (11091.5 MB/s)|
|Paraview                           |volume_flow_databladeVALIDATION_Blade_14.vtu|
|                                   |                      (890.33 MB/s)|
|Paraview surface                   |surface_flowdatabladeVALIDATION_Blade_14.vtu|
|                                   |                     (95.9393 MB/s)|
|SU2 ASCII restart                  |restart_flow_databladeVALIDATION_Blade_14.csv|
|                                   |                     (21.3789 MB/s)|
|CSV file                           |surface_flowdatabladeVALIDATION_Blade_14.csv|
|                                   |                     (21.4231 MB/s)|
+-----------------------------------------------------------------------+
+--------------------------------------+
|  Inner_Iter|   Time(sec)|    rms[Rho]|
+--------------------------------------+
|         510|  1.0764e-01|   -3.420058|
|         520|  1.0683e-01|   -3.532575|
|         530|  1.0590e-01|   -3.621064|
|         540|  1.0527e-01|   -3.399479|
|         550|  1.0463e-01|   -3.546206|
+-----------------------------------------------------------------------+
|        File Writing Summary       |              Filename             |
+-----------------------------------------------------------------------+
|SU2 binary restart                 |restart_flow_databladeVALIDATION_Blade_14.dat|
|                                   |                     (11863.2 MB/s)|
|Paraview                           |volume_flow_databladeVALIDATION_Blade_14.vtu|
|                                   |                     (865.313 MB/s)|
|Paraview surface                   |surface_flowdatabladeVALIDATION_Blade_14.vtu|
|                                   |                     (91.9053 MB/s)|
|SU2 ASCII restart                  |restart_flow_databladeVALIDATION_Blade_14.csv|
|                                   |                     (21.6362 MB/s)|
|CSV file                           |surface_flowdatabladeVALIDATION_Blade_14.csv|
|                                   |                     (21.1555 MB/s)|
+-----------------------------------------------------------------------+
+--------------------------------------+
|  Inner_Iter|   Time(sec)|    rms[Rho]|
+--------------------------------------+
|         560|  1.0803e-01|   -3.702978|
|         570|  1.0737e-01|   -3.495973|
|         580|  1.0705e-01|   -3.514758|
|         590|  1.0659e-01|   -3.764010|
|         600|  1.0603e-01|   -3.741996|
+-----------------------------------------------------------------------+
|        File Writing Summary       |              Filename             |
+-----------------------------------------------------------------------+
|SU2 binary restart                 |restart_flow_databladeVALIDATION_Blade_14.dat|
|                                   |                     (5900.26 MB/s)|
|Paraview                           |volume_flow_databladeVALIDATION_Blade_14.vtu|
|                                   |                     (673.795 MB/s)|
|Paraview surface                   |surface_flowdatabladeVALIDATION_Blade_14.vtu|
|                                   |                     (65.7107 MB/s)|
|SU2 ASCII restart                  |restart_flow_databladeVALIDATION_Blade_14.csv|
|                                   |                     (20.8067 MB/s)|
|CSV file                           |surface_flowdatabladeVALIDATION_Blade_14.csv|
|                                   |                     (19.3416 MB/s)|
+-----------------------------------------------------------------------+
+--------------------------------------+
|  Inner_Iter|   Time(sec)|    rms[Rho]|
+--------------------------------------+
|         610|  1.0949e-01|   -3.492079|
|         620|  1.0904e-01|   -3.609126|
|         630|  1.0840e-01|   -3.773322|
|         640|  1.0788e-01|   -3.567094|
|         650|  1.0748e-01|   -3.473149|
+-----------------------------------------------------------------------+
|        File Writing Summary       |              Filename             |
+-----------------------------------------------------------------------+
|SU2 binary restart                 |restart_flow_databladeVALIDATION_Blade_14.dat|
|                                   |                     (4324.51 MB/s)|
|Paraview                           |volume_flow_databladeVALIDATION_Blade_14.vtu|
|                                   |                     (675.856 MB/s)|
|Paraview surface                   |surface_flowdatabladeVALIDATION_Blade_14.vtu|
|                                   |                     (58.6128 MB/s)|
|SU2 ASCII restart                  |restart_flow_databladeVALIDATION_Blade_14.csv|
|                                   |                     (20.9016 MB/s)|
|CSV file                           |surface_flowdatabladeVALIDATION_Blade_14.csv|
|                                   |                     (20.7014 MB/s)|
+-----------------------------------------------------------------------+
+--------------------------------------+
|  Inner_Iter|   Time(sec)|    rms[Rho]|
+--------------------------------------+
|         660|  1.1044e-01|   -3.732600|
|         670|  1.0987e-01|   -3.745619|
|         680|  1.0947e-01|   -3.606688|
|         690|  1.0910e-01|   -3.609698|
|         700|  1.0881e-01|   -3.602443|
+-----------------------------------------------------------------------+
|        File Writing Summary       |              Filename             |
+-----------------------------------------------------------------------+
|SU2 binary restart                 |restart_flow_databladeVALIDATION_Blade_14.dat|
|                                   |                     (11880.5 MB/s)|
|Paraview                           |volume_flow_databladeVALIDATION_Blade_14.vtu|
|                                   |                     (865.511 MB/s)|
|Paraview surface                   |surface_flowdatabladeVALIDATION_Blade_14.vtu|
|                                   |                     (55.3826 MB/s)|
|SU2 ASCII restart                  |restart_flow_databladeVALIDATION_Blade_14.csv|
|                                   |                     (20.8994 MB/s)|
|CSV file                           |surface_flowdatabladeVALIDATION_Blade_14.csv|
|                                   |                     (21.7055 MB/s)|
+-----------------------------------------------------------------------+
+--------------------------------------+
|  Inner_Iter|   Time(sec)|    rms[Rho]|
+--------------------------------------+
|         710|  1.1138e-01|   -3.807175|
|         720|  1.1068e-01|   -3.872169|
|         730|  1.1010e-01|   -3.801466|
|         740|  1.0959e-01|   -3.844222|
|         750|  1.0897e-01|   -4.021856|
+-----------------------------------------------------------------------+
|        File Writing Summary       |              Filename             |
+-----------------------------------------------------------------------+
|SU2 binary restart                 |restart_flow_databladeVALIDATION_Blade_14.dat|
|                                   |                     (12289.8 MB/s)|
|Paraview                           |volume_flow_databladeVALIDATION_Blade_14.vtu|
|                                   |                     (965.168 MB/s)|
|Paraview surface                   |surface_flowdatabladeVALIDATION_Blade_14.vtu|
|                                   |                     (83.6117 MB/s)|
|SU2 ASCII restart                  |restart_flow_databladeVALIDATION_Blade_14.csv|
|                                   |                     (20.7313 MB/s)|
|CSV file                           |surface_flowdatabladeVALIDATION_Blade_14.csv|
|                                   |                     (19.6345 MB/s)|
+-----------------------------------------------------------------------+
+--------------------------------------+
|  Inner_Iter|   Time(sec)|    rms[Rho]|
+--------------------------------------+
|         760|  1.1146e-01|   -3.991465|
|         770|  1.1089e-01|   -3.986806|
|         780|  1.1030e-01|   -4.048667|
|         790|  1.0971e-01|   -4.039972|
|         800|  1.0925e-01|   -3.918004|
+-----------------------------------------------------------------------+
|        File Writing Summary       |              Filename             |
+-----------------------------------------------------------------------+
|SU2 binary restart                 |restart_flow_databladeVALIDATION_Blade_14.dat|
|                                   |                     (11598.1 MB/s)|
|Paraview                           |volume_flow_databladeVALIDATION_Blade_14.vtu|
|                                   |                     (676.189 MB/s)|
|Paraview surface                   |surface_flowdatabladeVALIDATION_Blade_14.vtu|
|                                   |                     (96.2996 MB/s)|
|SU2 ASCII restart                  |restart_flow_databladeVALIDATION_Blade_14.csv|
|                                   |                     (21.5065 MB/s)|
|CSV file                           |surface_flowdatabladeVALIDATION_Blade_14.csv|
|                                   |                     (21.4475 MB/s)|
+-----------------------------------------------------------------------+
+--------------------------------------+
|  Inner_Iter|   Time(sec)|    rms[Rho]|
+--------------------------------------+
|         810|  1.1148e-01|   -4.037808|
|         820|  1.1086e-01|   -4.131741|
|         830|  1.1035e-01|   -4.045728|
|         840|  1.0986e-01|   -4.072152|
|         850|  1.0930e-01|   -4.189340|
+-----------------------------------------------------------------------+
|        File Writing Summary       |              Filename             |
+-----------------------------------------------------------------------+
|SU2 binary restart                 |restart_flow_databladeVALIDATION_Blade_14.dat|
|                                   |                     (11423.9 MB/s)|
|Paraview                           |volume_flow_databladeVALIDATION_Blade_14.vtu|
|                                   |                     (958.106 MB/s)|
|Paraview surface                   |surface_flowdatabladeVALIDATION_Blade_14.vtu|
|                                   |                     (97.2435 MB/s)|
|SU2 ASCII restart                  |restart_flow_databladeVALIDATION_Blade_14.csv|
|                                   |                     (21.1331 MB/s)|
|CSV file                           |surface_flowdatabladeVALIDATION_Blade_14.csv|
|                                   |                       (21.35 MB/s)|
+-----------------------------------------------------------------------+
+--------------------------------------+
|  Inner_Iter|   Time(sec)|    rms[Rho]|
+--------------------------------------+
|         860|  1.1143e-01|   -4.186135|
|         870|  1.1093e-01|   -4.129213|
|         880|  1.1047e-01|   -4.164066|
|         890|  1.0992e-01|   -4.228645|
|         900|  1.0943e-01|   -4.158359|
+-----------------------------------------------------------------------+
|        File Writing Summary       |              Filename             |
+-----------------------------------------------------------------------+
|SU2 binary restart                 |restart_flow_databladeVALIDATION_Blade_14.dat|
|                                   |                     (12933.2 MB/s)|
|Paraview                           |volume_flow_databladeVALIDATION_Blade_14.vtu|
|                                   |                     (961.104 MB/s)|
|Paraview surface                   |surface_flowdatabladeVALIDATION_Blade_14.vtu|
|                                   |                     (70.8347 MB/s)|
|SU2 ASCII restart                  |restart_flow_databladeVALIDATION_Blade_14.csv|
|                                   |                       (21.38 MB/s)|
|CSV file                           |surface_flowdatabladeVALIDATION_Blade_14.csv|
|                                   |                     (21.4159 MB/s)|
+-----------------------------------------------------------------------+
+--------------------------------------+
|  Inner_Iter|   Time(sec)|    rms[Rho]|
+--------------------------------------+
|         910|  1.1142e-01|   -4.152209|
|         920|  1.1091e-01|   -4.248103|
|         930|  1.1034e-01|   -4.249987|
|         940|  1.0991e-01|   -4.179820|
|         950|  1.0947e-01|   -4.264339|
+-----------------------------------------------------------------------+
|        File Writing Summary       |              Filename             |
+-----------------------------------------------------------------------+
|SU2 binary restart                 |restart_flow_databladeVALIDATION_Blade_14.dat|
|                                   |                     (14757.4 MB/s)|
|Paraview                           |volume_flow_databladeVALIDATION_Blade_14.vtu|
|                                   |                     (1030.53 MB/s)|
|Paraview surface                   |surface_flowdatabladeVALIDATION_Blade_14.vtu|
|                                   |                     (97.6571 MB/s)|
|SU2 ASCII restart                  |restart_flow_databladeVALIDATION_Blade_14.csv|
|                                   |                     (21.1235 MB/s)|
|CSV file                           |surface_flowdatabladeVALIDATION_Blade_14.csv|
|                                   |                     (21.2466 MB/s)|
+-----------------------------------------------------------------------+
+--------------------------------------+
|  Inner_Iter|   Time(sec)|    rms[Rho]|
+--------------------------------------+
|         960|  1.1126e-01|   -4.384400|
|         970|  1.1076e-01|   -4.334146|
|         980|  1.1043e-01|   -4.236403|
|         990|  1.0992e-01|   -4.394464|
|        1000|  1.0943e-01|   -4.384661|
+-----------------------------------------------------------------------+
|        File Writing Summary       |              Filename             |
+-----------------------------------------------------------------------+
|SU2 binary restart                 |restart_flow_databladeVALIDATION_Blade_14.dat|
|                                   |                     (11428.1 MB/s)|
|Paraview                           |volume_flow_databladeVALIDATION_Blade_14.vtu|
|                                   |                     (1009.37 MB/s)|
|Paraview surface                   |surface_flowdatabladeVALIDATION_Blade_14.vtu|
|                                   |                     (104.488 MB/s)|
|SU2 ASCII restart                  |restart_flow_databladeVALIDATION_Blade_14.csv|
|                                   |                     (21.3157 MB/s)|
|CSV file                           |surface_flowdatabladeVALIDATION_Blade_14.csv|
|                                   |                     (20.7009 MB/s)|
+-----------------------------------------------------------------------+
+--------------------------------------+
|  Inner_Iter|   Time(sec)|    rms[Rho]|
+--------------------------------------+
|        1010|  1.1120e-01|   -4.263336|
|        1020|  1.1079e-01|   -4.365050|
|        1030|  1.1028e-01|   -4.515928|
|        1040|  1.0981e-01|   -4.442050|
|        1050|  1.0945e-01|   -4.295220|
+-----------------------------------------------------------------------+
|        File Writing Summary       |              Filename             |
+-----------------------------------------------------------------------+
|SU2 binary restart                 |restart_flow_databladeVALIDATION_Blade_14.dat|
|                                   |                     (11914.2 MB/s)|
|Paraview                           |volume_flow_databladeVALIDATION_Blade_14.vtu|
|                                   |                     (1012.39 MB/s)|
|Paraview surface                   |surface_flowdatabladeVALIDATION_Blade_14.vtu|
|                                   |                      (86.953 MB/s)|
|SU2 ASCII restart                  |restart_flow_databladeVALIDATION_Blade_14.csv|
|                                   |                     (21.6311 MB/s)|
|CSV file                           |surface_flowdatabladeVALIDATION_Blade_14.csv|
|                                   |                     (22.4407 MB/s)|
+-----------------------------------------------------------------------+
+--------------------------------------+
|  Inner_Iter|   Time(sec)|    rms[Rho]|
+--------------------------------------+
|        1060|  1.1110e-01|   -4.402953|
|        1070|  1.1063e-01|   -4.499879|
|        1080|  1.1020e-01|   -4.389330|
|        1090|  1.0986e-01|   -4.355995|
|        1100|  1.0941e-01|   -4.538554|
+-----------------------------------------------------------------------+
|        File Writing Summary       |              Filename             |
+-----------------------------------------------------------------------+
|SU2 binary restart                 |restart_flow_databladeVALIDATION_Blade_14.dat|
|                                   |                     (11700.4 MB/s)|
|Paraview                           |volume_flow_databladeVALIDATION_Blade_14.vtu|
|                                   |                     (868.906 MB/s)|
|Paraview surface                   |surface_flowdatabladeVALIDATION_Blade_14.vtu|
|                                   |                     (70.5322 MB/s)|
|SU2 ASCII restart                  |restart_flow_databladeVALIDATION_Blade_14.csv|
|                                   |                     (21.3706 MB/s)|
|CSV file                           |surface_flowdatabladeVALIDATION_Blade_14.csv|
|                                   |                     (21.9709 MB/s)|
+-----------------------------------------------------------------------+
+--------------------------------------+
|  Inner_Iter|   Time(sec)|    rms[Rho]|
+--------------------------------------+
|        1110|  1.1096e-01|   -4.538064|
|        1120|  1.1057e-01|   -4.406923|
|        1130|  1.1020e-01|   -4.471420|
|        1140|  1.0978e-01|   -4.574201|
|        1150|  1.0944e-01|   -4.575405|
+-----------------------------------------------------------------------+
|        File Writing Summary       |              Filename             |
+-----------------------------------------------------------------------+
|SU2 binary restart                 |restart_flow_databladeVALIDATION_Blade_14.dat|
|                                   |                     (10109.4 MB/s)|
|Paraview                           |volume_flow_databladeVALIDATION_Blade_14.vtu|
|                                   |                     (872.213 MB/s)|
|Paraview surface                   |surface_flowdatabladeVALIDATION_Blade_14.vtu|
|                                   |                     (83.4092 MB/s)|
|SU2 ASCII restart                  |restart_flow_databladeVALIDATION_Blade_14.csv|
|                                   |                     (21.5212 MB/s)|
|CSV file                           |surface_flowdatabladeVALIDATION_Blade_14.csv|
|                                   |                     (19.8464 MB/s)|
+-----------------------------------------------------------------------+
+--------------------------------------+
|  Inner_Iter|   Time(sec)|    rms[Rho]|
+--------------------------------------+
|        1160|  1.1101e-01|   -4.528170|
|        1170|  1.1062e-01|   -4.674574|
|        1180|  1.1023e-01|   -4.686970|
|        1190|  1.0987e-01|   -4.601665|
|        1200|  1.0955e-01|   -4.651591|
+-----------------------------------------------------------------------+
|        File Writing Summary       |              Filename             |
+-----------------------------------------------------------------------+
|SU2 binary restart                 |restart_flow_databladeVALIDATION_Blade_14.dat|
|                                   |                     (11079.6 MB/s)|
|Paraview                           |volume_flow_databladeVALIDATION_Blade_14.vtu|
|                                   |                     (900.114 MB/s)|
|Paraview surface                   |surface_flowdatabladeVALIDATION_Blade_14.vtu|
|                                   |                     (98.2541 MB/s)|
|SU2 ASCII restart                  |restart_flow_databladeVALIDATION_Blade_14.csv|
|                                   |                     (21.3605 MB/s)|
|CSV file                           |surface_flowdatabladeVALIDATION_Blade_14.csv|
|                                   |                     (21.9805 MB/s)|
+-----------------------------------------------------------------------+
+--------------------------------------+
|  Inner_Iter|   Time(sec)|    rms[Rho]|
+--------------------------------------+
|        1210|  1.1098e-01|   -4.747665|
|        1220|  1.1059e-01|   -4.733875|
|        1230|  1.1025e-01|   -4.661426|
|        1240|  1.0991e-01|   -4.754331|
|        1250|  1.0955e-01|   -4.773955|
+-----------------------------------------------------------------------+
|        File Writing Summary       |              Filename             |
+-----------------------------------------------------------------------+
|SU2 binary restart                 |restart_flow_databladeVALIDATION_Blade_14.dat|
|                                   |                     (10423.2 MB/s)|
|Paraview                           |volume_flow_databladeVALIDATION_Blade_14.vtu|
|                                   |                     (372.084 MB/s)|
|Paraview surface                   |surface_flowdatabladeVALIDATION_Blade_14.vtu|
|                                   |                     (62.2913 MB/s)|
|SU2 ASCII restart                  |restart_flow_databladeVALIDATION_Blade_14.csv|
|                                   |                     (20.8558 MB/s)|
|CSV file                           |surface_flowdatabladeVALIDATION_Blade_14.csv|
|                                   |                     (19.0595 MB/s)|
+-----------------------------------------------------------------------+
+--------------------------------------+
|  Inner_Iter|   Time(sec)|    rms[Rho]|
+--------------------------------------+
|        1260|  1.1114e-01|   -4.655052|
|        1270|  1.1092e-01|   -4.721545|
|        1280|  1.1153e-01|   -4.739517|
|        1290|  1.1133e-01|   -4.766303|
|        1300|  1.1109e-01|   -4.833253|
+-----------------------------------------------------------------------+
|        File Writing Summary       |              Filename             |
+-----------------------------------------------------------------------+
|SU2 binary restart                 |restart_flow_databladeVALIDATION_Blade_14.dat|
|                                   |                     (8451.39 MB/s)|
|Paraview                           |volume_flow_databladeVALIDATION_Blade_14.vtu|
|                                   |                     (980.985 MB/s)|
|Paraview surface                   |surface_flowdatabladeVALIDATION_Blade_14.vtu|
|                                   |                     (100.852 MB/s)|
|SU2 ASCII restart                  |restart_flow_databladeVALIDATION_Blade_14.csv|
|                                   |                     (20.6923 MB/s)|
|CSV file                           |surface_flowdatabladeVALIDATION_Blade_14.csv|
|                                   |                     (19.6053 MB/s)|
+-----------------------------------------------------------------------+
+--------------------------------------+
|  Inner_Iter|   Time(sec)|    rms[Rho]|
+--------------------------------------+
|        1310|  1.1258e-01|   -4.842828|
|        1320|  1.1232e-01|   -4.888615|
|        1330|  1.1207e-01|   -4.892798|
|        1340|  1.1191e-01|   -4.862394|
|        1350|  1.1173e-01|   -5.027286|
+-----------------------------------------------------------------------+
|        File Writing Summary       |              Filename             |
+-----------------------------------------------------------------------+
|SU2 binary restart                 |restart_flow_databladeVALIDATION_Blade_14.dat|
|                                   |                     (3749.98 MB/s)|
|Paraview                           |volume_flow_databladeVALIDATION_Blade_14.vtu|
|                                   |                     (270.421 MB/s)|
|Paraview surface                   |surface_flowdatabladeVALIDATION_Blade_14.vtu|
|                                   |                     (83.2623 MB/s)|
|SU2 ASCII restart                  |restart_flow_databladeVALIDATION_Blade_14.csv|
|                                   |                     (19.9891 MB/s)|
|CSV file                           |surface_flowdatabladeVALIDATION_Blade_14.csv|
|                                   |                     (18.0787 MB/s)|
+-----------------------------------------------------------------------+
+--------------------------------------+
|  Inner_Iter|   Time(sec)|    rms[Rho]|
+--------------------------------------+
|        1360|  1.1331e-01|   -4.998245|
|        1370|  1.1308e-01|   -4.990616|
|        1380|  1.1278e-01|   -5.068796|
|        1390|  1.1257e-01|   -5.006008|
|        1400|  1.1238e-01|   -4.947442|
+-----------------------------------------------------------------------+
|        File Writing Summary       |              Filename             |
+-----------------------------------------------------------------------+
|SU2 binary restart                 |restart_flow_databladeVALIDATION_Blade_14.dat|
|                                   |                     (7673.17 MB/s)|
|Paraview                           |volume_flow_databladeVALIDATION_Blade_14.vtu|
|                                   |                     (528.395 MB/s)|
|Paraview surface                   |surface_flowdatabladeVALIDATION_Blade_14.vtu|
|                                   |                     (17.4555 MB/s)|
|SU2 ASCII restart                  |restart_flow_databladeVALIDATION_Blade_14.csv|
|                                   |                     (19.4688 MB/s)|
|CSV file                           |surface_flowdatabladeVALIDATION_Blade_14.csv|
|                                   |                     (20.3555 MB/s)|
+-----------------------------------------------------------------------+
+--------------------------------------+
|  Inner_Iter|   Time(sec)|    rms[Rho]|
+--------------------------------------+
|        1410|  1.1380e-01|   -5.111508|
|        1420|  1.1368e-01|   -4.990041|
|        1430|  1.1397e-01|   -4.998375|
|        1440|  1.1379e-01|   -5.031909|
|        1450|  1.1348e-01|   -5.180984|
+-----------------------------------------------------------------------+
|        File Writing Summary       |              Filename             |
+-----------------------------------------------------------------------+
|SU2 binary restart                 |restart_flow_databladeVALIDATION_Blade_14.dat|
|                                   |                      (4823.7 MB/s)|
|Paraview                           |volume_flow_databladeVALIDATION_Blade_14.vtu|
|                                   |                     (738.958 MB/s)|
|Paraview surface                   |surface_flowdatabladeVALIDATION_Blade_14.vtu|
|                                   |                     (74.2328 MB/s)|
|SU2 ASCII restart                  |restart_flow_databladeVALIDATION_Blade_14.csv|
|                                   |                     (18.7462 MB/s)|
|CSV file                           |surface_flowdatabladeVALIDATION_Blade_14.csv|
|                                   |                     (19.5297 MB/s)|
+-----------------------------------------------------------------------+
+--------------------------------------+
|  Inner_Iter|   Time(sec)|    rms[Rho]|
+--------------------------------------+
|        1460|  1.1505e-01|   -5.116753|
|        1470|  1.1539e-01|   -5.099490|
|        1480|  1.1530e-01|   -5.217313|
|        1490|  1.1543e-01|   -5.209502|
|        1500|  1.1546e-01|   -5.116098|
+-----------------------------------------------------------------------+
|        File Writing Summary       |              Filename             |
+-----------------------------------------------------------------------+
|SU2 binary restart                 |restart_flow_databladeVALIDATION_Blade_14.dat|
|                                   |                     (9527.15 MB/s)|
|Paraview                           |volume_flow_databladeVALIDATION_Blade_14.vtu|
|                                   |                     (923.584 MB/s)|
|Paraview surface                   |surface_flowdatabladeVALIDATION_Blade_14.vtu|
|                                   |                     (86.3334 MB/s)|
|SU2 ASCII restart                  |restart_flow_databladeVALIDATION_Blade_14.csv|
|                                   |                     (19.2081 MB/s)|
|CSV file                           |surface_flowdatabladeVALIDATION_Blade_14.csv|
|                                   |                      (19.023 MB/s)|
+-----------------------------------------------------------------------+
+--------------------------------------+
|  Inner_Iter|   Time(sec)|    rms[Rho]|
+--------------------------------------+
|        1510|  1.1676e-01|   -5.173658|
|        1520|  1.1655e-01|   -5.149469|
|        1530|  1.1657e-01|   -5.288824|
|        1540|  1.1630e-01|   -5.245878|
|        1550|  1.1610e-01|   -5.263959|
+-----------------------------------------------------------------------+
|        File Writing Summary       |              Filename             |
+-----------------------------------------------------------------------+
|SU2 binary restart                 |restart_flow_databladeVALIDATION_Blade_14.dat|
|                                   |                     (9833.89 MB/s)|
|Paraview                           |volume_flow_databladeVALIDATION_Blade_14.vtu|
|                                   |                     (883.555 MB/s)|
|Paraview surface                   |surface_flowdatabladeVALIDATION_Blade_14.vtu|
|                                   |                     (92.7397 MB/s)|
|SU2 ASCII restart                  |restart_flow_databladeVALIDATION_Blade_14.csv|
|                                   |                     (19.4688 MB/s)|
|CSV file                           |surface_flowdatabladeVALIDATION_Blade_14.csv|
|                                   |                     (20.2377 MB/s)|
+-----------------------------------------------------------------------+
+--------------------------------------+
|  Inner_Iter|   Time(sec)|    rms[Rho]|
+--------------------------------------+
|        1560|  1.1749e-01|   -5.285095|
|        1570|  1.1724e-01|   -5.288972|
|        1580|  1.1722e-01|   -5.241133|
|        1590|  1.1691e-01|   -5.302994|
|        1600|  1.1668e-01|   -5.341730|
+-----------------------------------------------------------------------+
|        File Writing Summary       |              Filename             |
+-----------------------------------------------------------------------+
|SU2 binary restart                 |restart_flow_databladeVALIDATION_Blade_14.dat|
|                                   |                     (10756.3 MB/s)|
|Paraview                           |volume_flow_databladeVALIDATION_Blade_14.vtu|
|                                   |                     (266.303 MB/s)|
|Paraview surface                   |surface_flowdatabladeVALIDATION_Blade_14.vtu|
|                                   |                     (56.0053 MB/s)|
|SU2 ASCII restart                  |restart_flow_databladeVALIDATION_Blade_14.csv|
|                                   |                     (19.6923 MB/s)|
|CSV file                           |surface_flowdatabladeVALIDATION_Blade_14.csv|
|                                   |                     (17.7066 MB/s)|
+-----------------------------------------------------------------------+
+--------------------------------------+
|  Inner_Iter|   Time(sec)|    rms[Rho]|
+--------------------------------------+
|        1610|  1.1799e-01|   -5.292265|
|        1620|  1.1829e-01|   -5.340625|
|        1630|  1.1831e-01|   -5.369502|
|        1640|  1.1817e-01|   -5.416798|
|        1650|  1.1837e-01|   -5.439050|
+-----------------------------------------------------------------------+
|        File Writing Summary       |              Filename             |
+-----------------------------------------------------------------------+
|SU2 binary restart                 |restart_flow_databladeVALIDATION_Blade_14.dat|
|                                   |                     (10972.3 MB/s)|
|Paraview                           |volume_flow_databladeVALIDATION_Blade_14.vtu|
|                                   |                      (797.74 MB/s)|
|Paraview surface                   |surface_flowdatabladeVALIDATION_Blade_14.vtu|
|                                   |                     (91.2237 MB/s)|
|SU2 ASCII restart                  |restart_flow_databladeVALIDATION_Blade_14.csv|
|                                   |                     (18.2354 MB/s)|
|CSV file                           |surface_flowdatabladeVALIDATION_Blade_14.csv|
|                                   |                     (18.8216 MB/s)|
+-----------------------------------------------------------------------+
+--------------------------------------+
|  Inner_Iter|   Time(sec)|    rms[Rho]|
+--------------------------------------+
|        1660|  1.1967e-01|   -5.446864|
|        1670|  1.1941e-01|   -5.410419|
|        1680|  1.1917e-01|   -5.386825|
|        1690|  1.1928e-01|   -5.438010|
|        1700|  1.1900e-01|   -5.490839|
+-----------------------------------------------------------------------+
|        File Writing Summary       |              Filename             |
+-----------------------------------------------------------------------+
|SU2 binary restart                 |restart_flow_databladeVALIDATION_Blade_14.dat|
|                                   |                     (7115.43 MB/s)|
|Paraview                           |volume_flow_databladeVALIDATION_Blade_14.vtu|
|                                   |                     (617.865 MB/s)|
|Paraview surface                   |surface_flowdatabladeVALIDATION_Blade_14.vtu|
|                                   |                     (33.0608 MB/s)|
|SU2 ASCII restart                  |restart_flow_databladeVALIDATION_Blade_14.csv|
|                                   |                     (18.5292 MB/s)|
|CSV file                           |surface_flowdatabladeVALIDATION_Blade_14.csv|
|                                   |                     (20.4734 MB/s)|
+-----------------------------------------------------------------------+
+--------------------------------------+
|  Inner_Iter|   Time(sec)|    rms[Rho]|
+--------------------------------------+
|        1710|  1.2051e-01|   -5.453412|
|        1720|  1.2084e-01|   -5.471467|
|        1730|  1.2075e-01|   -5.476136|
|        1740|  1.2052e-01|   -5.450870|
|        1750|  1.2074e-01|   -5.479726|
+-----------------------------------------------------------------------+
|        File Writing Summary       |              Filename             |
+-----------------------------------------------------------------------+
|SU2 binary restart                 |restart_flow_databladeVALIDATION_Blade_14.dat|
|                                   |                     (5601.62 MB/s)|
|Paraview                           |volume_flow_databladeVALIDATION_Blade_14.vtu|
|                                   |                     (761.162 MB/s)|
|Paraview surface                   |surface_flowdatabladeVALIDATION_Blade_14.vtu|
|                                   |                     (50.1239 MB/s)|
|SU2 ASCII restart                  |restart_flow_databladeVALIDATION_Blade_14.csv|
|                                   |                     (19.3774 MB/s)|
|CSV file                           |surface_flowdatabladeVALIDATION_Blade_14.csv|
|                                   |                     (19.2962 MB/s)|
+-----------------------------------------------------------------------+
+--------------------------------------+
|  Inner_Iter|   Time(sec)|    rms[Rho]|
+--------------------------------------+
|        1760|  1.2191e-01|   -5.506335|
|        1770|  1.2160e-01|   -5.494320|
|        1780|  1.2139e-01|   -5.459213|
|        1790|  1.2110e-01|   -5.609465|
|        1800|  1.2084e-01|   -5.647421|
+-----------------------------------------------------------------------+
|        File Writing Summary       |              Filename             |
+-----------------------------------------------------------------------+
|SU2 binary restart                 |restart_flow_databladeVALIDATION_Blade_14.dat|
|                                   |                     (8032.68 MB/s)|
|Paraview                           |volume_flow_databladeVALIDATION_Blade_14.vtu|
|                                   |                     (806.066 MB/s)|
|Paraview surface                   |surface_flowdatabladeVALIDATION_Blade_14.vtu|
|                                   |                       (89.49 MB/s)|
|SU2 ASCII restart                  |restart_flow_databladeVALIDATION_Blade_14.csv|
|                                   |                     (20.4012 MB/s)|
|CSV file                           |surface_flowdatabladeVALIDATION_Blade_14.csv|
|                                   |                      (19.244 MB/s)|
+-----------------------------------------------------------------------+
+--------------------------------------+
|  Inner_Iter|   Time(sec)|    rms[Rho]|
+--------------------------------------+
|        1810|  1.2189e-01|   -5.573426|
|        1820|  1.2159e-01|   -5.682319|
|        1830|  1.2127e-01|   -5.690143|
|        1840|  1.2098e-01|   -5.612095|
|        1850|  1.2071e-01|   -5.632111|
+-----------------------------------------------------------------------+
|        File Writing Summary       |              Filename             |
+-----------------------------------------------------------------------+
|SU2 binary restart                 |restart_flow_databladeVALIDATION_Blade_14.dat|
|                                   |                     (12352.5 MB/s)|
|Paraview                           |volume_flow_databladeVALIDATION_Blade_14.vtu|
|                                   |                     (935.358 MB/s)|
|Paraview surface                   |surface_flowdatabladeVALIDATION_Blade_14.vtu|
|                                   |                     (76.6325 MB/s)|
|SU2 ASCII restart                  |restart_flow_databladeVALIDATION_Blade_14.csv|
|                                   |                     (20.7036 MB/s)|
|CSV file                           |surface_flowdatabladeVALIDATION_Blade_14.csv|
|                                   |                     (19.7162 MB/s)|
+-----------------------------------------------------------------------+
+--------------------------------------+
|  Inner_Iter|   Time(sec)|    rms[Rho]|
+--------------------------------------+
|        1860|  1.2164e-01|   -5.682946|
|        1870|  1.2133e-01|   -5.613517|
|        1880|  1.2107e-01|   -5.584741|
|        1890|  1.2077e-01|   -5.683010|
|        1900|  1.2049e-01|   -5.667270|
+-----------------------------------------------------------------------+
|        File Writing Summary       |              Filename             |
+-----------------------------------------------------------------------+
|SU2 binary restart                 |restart_flow_databladeVALIDATION_Blade_14.dat|
|                                   |                        (8456 MB/s)|
|Paraview                           |volume_flow_databladeVALIDATION_Blade_14.vtu|
|                                   |                     (873.561 MB/s)|
|Paraview surface                   |surface_flowdatabladeVALIDATION_Blade_14.vtu|
|                                   |                     (77.6494 MB/s)|
|SU2 ASCII restart                  |restart_flow_databladeVALIDATION_Blade_14.csv|
|                                   |                      (20.652 MB/s)|
|CSV file                           |surface_flowdatabladeVALIDATION_Blade_14.csv|
|                                   |                     (18.5645 MB/s)|
+-----------------------------------------------------------------------+
+--------------------------------------+
|  Inner_Iter|   Time(sec)|    rms[Rho]|
+--------------------------------------+
|        1910|  1.2143e-01|   -5.666233|
|        1920|  1.2115e-01|   -5.765624|
|        1930|  1.2085e-01|   -5.782239|
|        1940|  1.2058e-01|   -5.717722|
|        1950|  1.2034e-01|   -5.731229|
+-----------------------------------------------------------------------+
|        File Writing Summary       |              Filename             |
+-----------------------------------------------------------------------+
|SU2 binary restart                 |restart_flow_databladeVALIDATION_Blade_14.dat|
|                                   |                     (10304.8 MB/s)|
|Paraview                           |volume_flow_databladeVALIDATION_Blade_14.vtu|
|                                   |                     (889.932 MB/s)|
|Paraview surface                   |surface_flowdatabladeVALIDATION_Blade_14.vtu|
|                                   |                     (62.2623 MB/s)|
|SU2 ASCII restart                  |restart_flow_databladeVALIDATION_Blade_14.csv|
|                                   |                     (20.9254 MB/s)|
|CSV file                           |surface_flowdatabladeVALIDATION_Blade_14.csv|
|                                   |                     (19.7593 MB/s)|
+-----------------------------------------------------------------------+
+--------------------------------------+
|  Inner_Iter|   Time(sec)|    rms[Rho]|
+--------------------------------------+
|        1960|  1.2120e-01|   -5.823615|
|        1970|  1.2094e-01|   -5.706976|
|        1980|  1.2068e-01|   -5.730507|
|        1990|  1.2037e-01|   -5.776977|
|        2000|  1.2008e-01|   -5.755858|
+-----------------------------------------------------------------------+
|        File Writing Summary       |              Filename             |
+-----------------------------------------------------------------------+
|SU2 binary restart                 |restart_flow_databladeVALIDATION_Blade_14.dat|
|                                   |                     (11773.2 MB/s)|
|Paraview                           |volume_flow_databladeVALIDATION_Blade_14.vtu|
|                                   |                     (1049.07 MB/s)|
|Paraview surface                   |surface_flowdatabladeVALIDATION_Blade_14.vtu|
|                                   |                     (96.9931 MB/s)|
|SU2 ASCII restart                  |restart_flow_databladeVALIDATION_Blade_14.csv|
|                                   |                     (20.7524 MB/s)|
|CSV file                           |surface_flowdatabladeVALIDATION_Blade_14.csv|
|                                   |                     (20.4563 MB/s)|
+-----------------------------------------------------------------------+
+--------------------------------------+
|  Inner_Iter|   Time(sec)|    rms[Rho]|
+--------------------------------------+
|        2010|  1.2098e-01|   -5.673768|
|        2020|  1.2069e-01|   -5.827066|
|        2030|  1.2040e-01|   -5.858599|
|        2040|  1.2014e-01|   -5.808112|
|        2050|  1.1990e-01|   -5.820838|
+-----------------------------------------------------------------------+
|        File Writing Summary       |              Filename             |
+-----------------------------------------------------------------------+
|SU2 binary restart                 |restart_flow_databladeVALIDATION_Blade_14.dat|
|                                   |                     (10956.8 MB/s)|
|Paraview                           |volume_flow_databladeVALIDATION_Blade_14.vtu|
|                                   |                     (897.789 MB/s)|
|Paraview surface                   |surface_flowdatabladeVALIDATION_Blade_14.vtu|
|                                   |                     (80.6901 MB/s)|
|SU2 ASCII restart                  |restart_flow_databladeVALIDATION_Blade_14.csv|
|                                   |                     (20.6273 MB/s)|
|CSV file                           |surface_flowdatabladeVALIDATION_Blade_14.csv|
|                                   |                     (18.8335 MB/s)|
+-----------------------------------------------------------------------+
+--------------------------------------+
|  Inner_Iter|   Time(sec)|    rms[Rho]|
+--------------------------------------+
|        2060|  1.2073e-01|   -5.901804|
|        2070|  1.2044e-01|   -5.889786|
|        2080|  1.2018e-01|   -5.815309|
|        2090|  1.1994e-01|   -5.832299|
|        2100|  1.1966e-01|   -5.874766|
+-----------------------------------------------------------------------+
|        File Writing Summary       |              Filename             |
+-----------------------------------------------------------------------+
|SU2 binary restart                 |restart_flow_databladeVALIDATION_Blade_14.dat|
|                                   |                     (10716.9 MB/s)|
|Paraview                           |volume_flow_databladeVALIDATION_Blade_14.vtu|
|                                   |                     (825.913 MB/s)|
|Paraview surface                   |surface_flowdatabladeVALIDATION_Blade_14.vtu|
|                                   |                     (111.583 MB/s)|
|SU2 ASCII restart                  |restart_flow_databladeVALIDATION_Blade_14.csv|
|                                   |                     (20.6935 MB/s)|
|CSV file                           |surface_flowdatabladeVALIDATION_Blade_14.csv|
|                                   |                     (20.8276 MB/s)|
+-----------------------------------------------------------------------+
+--------------------------------------+
|  Inner_Iter|   Time(sec)|    rms[Rho]|
+--------------------------------------+
|        2110|  1.2048e-01|   -5.829561|
|        2120|  1.2024e-01|   -5.746840|
|        2130|  1.1998e-01|   -5.834468|
|        2140|  1.1969e-01|   -5.918201|
|        2150|  1.1945e-01|   -5.892668|
+-----------------------------------------------------------------------+
|        File Writing Summary       |              Filename             |
+-----------------------------------------------------------------------+
|SU2 binary restart                 |restart_flow_databladeVALIDATION_Blade_14.dat|
|                                   |                     (13372.3 MB/s)|
|Paraview                           |volume_flow_databladeVALIDATION_Blade_14.vtu|
|                                   |                     (982.435 MB/s)|
|Paraview surface                   |surface_flowdatabladeVALIDATION_Blade_14.vtu|
|                                   |                     (70.3798 MB/s)|
|SU2 ASCII restart                  |restart_flow_databladeVALIDATION_Blade_14.csv|
|                                   |                     (20.5278 MB/s)|
|CSV file                           |surface_flowdatabladeVALIDATION_Blade_14.csv|
|                                   |                     (19.3034 MB/s)|
+-----------------------------------------------------------------------+
+--------------------------------------+
|  Inner_Iter|   Time(sec)|    rms[Rho]|
+--------------------------------------+
|        2160|  1.2030e-01|   -5.886573|
|        2170|  1.2011e-01|   -5.888876|
|        2180|  1.1996e-01|   -5.882884|
|        2190|  1.1979e-01|   -5.885910|
|        2200|  1.1957e-01|   -5.840282|
+-----------------------------------------------------------------------+
|        File Writing Summary       |              Filename             |
+-----------------------------------------------------------------------+
|SU2 binary restart                 |restart_flow_databladeVALIDATION_Blade_14.dat|
|                                   |                     (12070.9 MB/s)|
|Paraview                           |volume_flow_databladeVALIDATION_Blade_14.vtu|
|                                   |                     (858.954 MB/s)|
|Paraview surface                   |surface_flowdatabladeVALIDATION_Blade_14.vtu|
|                                   |                     (83.5769 MB/s)|
|SU2 ASCII restart                  |restart_flow_databladeVALIDATION_Blade_14.csv|
|                                   |                     (21.1714 MB/s)|
|CSV file                           |surface_flowdatabladeVALIDATION_Blade_14.csv|
|                                   |                     (21.7082 MB/s)|
+-----------------------------------------------------------------------+
+--------------------------------------+
|  Inner_Iter|   Time(sec)|    rms[Rho]|
+--------------------------------------+
|        2210|  1.2033e-01|   -5.954970|
|        2220|  1.2008e-01|   -5.972113|
|        2230|  1.1986e-01|   -5.908095|
|        2240|  1.1964e-01|   -6.028694|
|        2250|  1.1938e-01|   -6.081604|
+-----------------------------------------------------------------------+
|        File Writing Summary       |              Filename             |
+-----------------------------------------------------------------------+
|SU2 binary restart                 |restart_flow_databladeVALIDATION_Blade_14.dat|
|                                   |                     (11298.3 MB/s)|
|Paraview                           |volume_flow_databladeVALIDATION_Blade_14.vtu|
|                                   |                     (857.963 MB/s)|
|Paraview surface                   |surface_flowdatabladeVALIDATION_Blade_14.vtu|
|                                   |                     (92.1794 MB/s)|
|SU2 ASCII restart                  |restart_flow_databladeVALIDATION_Blade_14.csv|
|                                   |                     (20.7034 MB/s)|
|CSV file                           |surface_flowdatabladeVALIDATION_Blade_14.csv|
|                                   |                     (19.8833 MB/s)|
+-----------------------------------------------------------------------+
+--------------------------------------+
|  Inner_Iter|   Time(sec)|    rms[Rho]|
+--------------------------------------+
|        2260|  1.2016e-01|   -6.019713|
|        2270|  1.1993e-01|   -5.993739|
|        2280|  1.1969e-01|   -6.099661|
|        2290|  1.1943e-01|   -6.097594|
|        2300|  1.1922e-01|   -5.944832|
+-----------------------------------------------------------------------+
|        File Writing Summary       |              Filename             |
+-----------------------------------------------------------------------+
|SU2 binary restart                 |restart_flow_databladeVALIDATION_Blade_14.dat|
|                                   |                     (12609.4 MB/s)|
|Paraview                           |volume_flow_databladeVALIDATION_Blade_14.vtu|
|                                   |                     (988.788 MB/s)|
|Paraview surface                   |surface_flowdatabladeVALIDATION_Blade_14.vtu|
|                                   |                     (76.5863 MB/s)|
|SU2 ASCII restart                  |restart_flow_databladeVALIDATION_Blade_14.csv|
|                                   |                     (20.7234 MB/s)|
|CSV file                           |surface_flowdatabladeVALIDATION_Blade_14.csv|
|                                   |                     (20.1923 MB/s)|
+-----------------------------------------------------------------------+
+--------------------------------------+
|  Inner_Iter|   Time(sec)|    rms[Rho]|
+--------------------------------------+
|        2310|  1.1998e-01|   -5.999601|
|        2320|  1.1973e-01|   -6.010505|
|        2330|  1.1952e-01|   -5.956465|
|        2340|  1.1931e-01|   -6.032621|
|        2350|  1.1906e-01|   -6.155222|
+-----------------------------------------------------------------------+
|        File Writing Summary       |              Filename             |
+-----------------------------------------------------------------------+
|SU2 binary restart                 |restart_flow_databladeVALIDATION_Blade_14.dat|
|                                   |                     (11582.5 MB/s)|
|Paraview                           |volume_flow_databladeVALIDATION_Blade_14.vtu|
[...]
+-----------------------------------------------------------------------+
|        File Writing Summary       |              Filename             |
+-----------------------------------------------------------------------+
|SU2 binary restart                 |restart_flow_databladeVALIDATION_Blade_14.dat|
|                                   |                     (11717.2 MB/s)|
|Paraview                           |volume_flow_databladeVALIDATION_Blade_14.vtu|
|                                   |                     (706.996 MB/s)|
|Paraview surface                   |surface_flowdatabladeVALIDATION_Blade_14.vtu|
|                                   |                     (24.2942 MB/s)|
|SU2 ASCII restart                  |restart_flow_databladeVALIDATION_Blade_14.csv|
|                                   |                     (20.4952 MB/s)|
|CSV file                           |surface_flowdatabladeVALIDATION_Blade_14.csv|
|                                   |                     (20.6995 MB/s)|
+-----------------------------------------------------------------------+
+--------------------------------------+
|  Inner_Iter|   Time(sec)|    rms[Rho]|
+--------------------------------------+
|        2810|  1.1893e-01|   -6.585069|
|        2820|  1.1873e-01|   -6.636479|
|        2830|  1.1858e-01|   -6.555942|
|        2840|  1.1845e-01|   -6.506877|
|        2850|  1.1826e-01|   -6.600921|
+-----------------------------------------------------------------------+
|        File Writing Summary       |              Filename             |
+-----------------------------------------------------------------------+
|SU2 binary restart                 |restart_flow_databladeVALIDATION_Blade_14.dat|
|                                   |                     (12824.1 MB/s)|
|Paraview                           |volume_flow_databladeVALIDATION_Blade_14.vtu|
|                                   |                     (943.855 MB/s)|
|Paraview surface                   |surface_flowdatabladeVALIDATION_Blade_14.vtu|
|                                   |                     (59.5406 MB/s)|
|SU2 ASCII restart                  |restart_flow_databladeVALIDATION_Blade_14.csv|
|                                   |                     (20.6106 MB/s)|
|CSV file                           |surface_flowdatabladeVALIDATION_Blade_14.csv|
|                                   |                      (21.255 MB/s)|
+-----------------------------------------------------------------------+
+--------------------------------------+
|  Inner_Iter|   Time(sec)|    rms[Rho]|
+--------------------------------------+
|        2860|  1.1887e-01|   -6.556126|
|        2870|  1.1870e-01|   -6.463897|
|        2880|  1.1852e-01|   -6.535601|
|        2890|  1.1833e-01|   -6.627389|
|        2900|  1.1816e-01|   -6.613674|
+-----------------------------------------------------------------------+
|        File Writing Summary       |              Filename             |
+-----------------------------------------------------------------------+
|SU2 binary restart                 |restart_flow_databladeVALIDATION_Blade_14.dat|
|                                   |                     (10451.9 MB/s)|
|Paraview                           |volume_flow_databladeVALIDATION_Blade_14.vtu|
|                                   |                     (868.392 MB/s)|
|Paraview surface                   |surface_flowdatabladeVALIDATION_Blade_14.vtu|
|                                   |                     (80.5338 MB/s)|
|SU2 ASCII restart                  |restart_flow_databladeVALIDATION_Blade_14.csv|
|                                   |                     (21.2854 MB/s)|
|CSV file                           |surface_flowdatabladeVALIDATION_Blade_14.csv|
|                                   |                     (21.5576 MB/s)|
+-----------------------------------------------------------------------+
+--------------------------------------+
|  Inner_Iter|   Time(sec)|    rms[Rho]|
+--------------------------------------+
|        2910|  1.1876e-01|   -6.580538|
|        2920|  1.1857e-01|   -6.686544|
|        2930|  1.1837e-01|   -6.712529|
|        2940|  1.1820e-01|   -6.618837|
|        2950|  1.1804e-01|   -6.614495|
+-----------------------------------------------------------------------+
|        File Writing Summary       |              Filename             |
+-----------------------------------------------------------------------+
|SU2 binary restart                 |restart_flow_databladeVALIDATION_Blade_14.dat|
|                                   |                     (12825.2 MB/s)|
|Paraview                           |volume_flow_databladeVALIDATION_Blade_14.vtu|
|                                   |                     (1009.88 MB/s)|
|Paraview surface                   |surface_flowdatabladeVALIDATION_Blade_14.vtu|
|                                   |                     (74.7553 MB/s)|
|SU2 ASCII restart                  |restart_flow_databladeVALIDATION_Blade_14.csv|
|                                   |                     (21.0843 MB/s)|
|CSV file                           |surface_flowdatabladeVALIDATION_Blade_14.csv|
|                                   |                     (19.1704 MB/s)|
+-----------------------------------------------------------------------+
+--------------------------------------+
|  Inner_Iter|   Time(sec)|    rms[Rho]|
+--------------------------------------+
|        2960|  1.1861e-01|   -6.702519|
|        2970|  1.1844e-01|   -6.642927|
|        2980|  1.1830e-01|   -6.557458|
|        2990|  1.1813e-01|   -6.655954|
|        3000|  1.1796e-01|   -6.695776|
+-----------------------------------------------------------------------+
|        File Writing Summary       |              Filename             |
+-----------------------------------------------------------------------+
|SU2 binary restart                 |restart_flow_databladeVALIDATION_Blade_14.dat|
|                                   |                     (8959.42 MB/s)|
|Paraview                           |volume_flow_databladeVALIDATION_Blade_14.vtu|
|                                   |                        (1008 MB/s)|
|Paraview surface                   |surface_flowdatabladeVALIDATION_Blade_14.vtu|
|                                   |                     (82.3353 MB/s)|
|SU2 ASCII restart                  |restart_flow_databladeVALIDATION_Blade_14.csv|
|                                   |                     (20.6256 MB/s)|
|CSV file                           |surface_flowdatabladeVALIDATION_Blade_14.csv|
|                                   |                     (22.2027 MB/s)|
+-----------------------------------------------------------------------+
+--------------------------------------+
|  Inner_Iter|   Time(sec)|    rms[Rho]|
+--------------------------------------+
|        3010|  1.1855e-01|   -6.660070|
|        3020|  1.1839e-01|   -6.679646|
|        3030|  1.1820e-01|   -6.782862|
|        3040|  1.1802e-01|   -6.790706|
|        3050|  1.1785e-01|   -6.709230|
+-----------------------------------------------------------------------+
|        File Writing Summary       |              Filename             |
+-----------------------------------------------------------------------+
|SU2 binary restart                 |restart_flow_databladeVALIDATION_Blade_14.dat|
|                                   |                     (12471.6 MB/s)|
|Paraview                           |volume_flow_databladeVALIDATION_Blade_14.vtu|
|                                   |                     (987.651 MB/s)|
|Paraview surface                   |surface_flowdatabladeVALIDATION_Blade_14.vtu|
|                                   |                     (93.7458 MB/s)|
|SU2 ASCII restart                  |restart_flow_databladeVALIDATION_Blade_14.csv|
|                                   |                     (21.1191 MB/s)|
|CSV file                           |surface_flowdatabladeVALIDATION_Blade_14.csv|
|                                   |                     (13.8048 MB/s)|
+-----------------------------------------------------------------------+
+--------------------------------------+
|  Inner_Iter|   Time(sec)|    rms[Rho]|
+--------------------------------------+
|        3060|  1.1843e-01|   -6.745653|
|        3070|  1.1825e-01|   -6.791943|
|        3080|  1.1808e-01|   -6.718723|
|        3090|  1.1795e-01|   -6.696031|
|        3100|  1.1777e-01|   -6.761867|
+-----------------------------------------------------------------------+
|        File Writing Summary       |              Filename             |
+-----------------------------------------------------------------------+
|SU2 binary restart                 |restart_flow_databladeVALIDATION_Blade_14.dat|
|                                   |                     (10575.9 MB/s)|
|Paraview                           |volume_flow_databladeVALIDATION_Blade_14.vtu|
|                                   |                       (802.1 MB/s)|
|Paraview surface                   |surface_flowdatabladeVALIDATION_Blade_14.vtu|
|                                   |                     (94.5435 MB/s)|
|SU2 ASCII restart                  |restart_flow_databladeVALIDATION_Blade_14.csv|
|                                   |                     (20.1003 MB/s)|
|CSV file                           |surface_flowdatabladeVALIDATION_Blade_14.csv|
|                                   |                     (18.5635 MB/s)|
+-----------------------------------------------------------------------+
+--------------------------------------+
|  Inner_Iter|   Time(sec)|    rms[Rho]|
+--------------------------------------+
|        3110|  1.1838e-01|   -6.762888|
|        3120|  1.1822e-01|   -6.722772|
|        3130|  1.1807e-01|   -6.785303|
|        3140|  1.1789e-01|   -6.864069|
|        3150|  1.1772e-01|   -6.858222|
+-----------------------------------------------------------------------+
|        File Writing Summary       |              Filename             |
+-----------------------------------------------------------------------+
|SU2 binary restart                 |restart_flow_databladeVALIDATION_Blade_14.dat|
|                                   |                     (11339.6 MB/s)|
|Paraview                           |volume_flow_databladeVALIDATION_Blade_14.vtu|
|                                   |                     (931.252 MB/s)|
|Paraview surface                   |surface_flowdatabladeVALIDATION_Blade_14.vtu|
|                                   |                     (78.1124 MB/s)|
|SU2 ASCII restart                  |restart_flow_databladeVALIDATION_Blade_14.csv|
|                                   |                     (20.7209 MB/s)|
|CSV file                           |surface_flowdatabladeVALIDATION_Blade_14.csv|
|                                   |                     (18.7126 MB/s)|
+-----------------------------------------------------------------------+
+--------------------------------------+
|  Inner_Iter|   Time(sec)|    rms[Rho]|
+--------------------------------------+
|        3160|  1.1829e-01|   -6.796082|
|        3170|  1.1813e-01|   -6.861857|
|        3180|  1.1796e-01|   -6.866025|
|        3190|  1.1781e-01|   -6.797524|
|        3200|  1.1765e-01|   -6.816888|
+-----------------------------------------------------------------------+
|        File Writing Summary       |              Filename             |
+-----------------------------------------------------------------------+
|SU2 binary restart                 |restart_flow_databladeVALIDATION_Blade_14.dat|
|                                   |                     (12633.1 MB/s)|
|Paraview                           |volume_flow_databladeVALIDATION_Blade_14.vtu|
|                                   |                     (993.857 MB/s)|
|Paraview surface                   |surface_flowdatabladeVALIDATION_Blade_14.vtu|
|                                   |                     (98.3904 MB/s)|
|SU2 ASCII restart                  |restart_flow_databladeVALIDATION_Blade_14.csv|
|                                   |                     (20.2242 MB/s)|
|CSV file                           |surface_flowdatabladeVALIDATION_Blade_14.csv|
|                                   |                     (19.3209 MB/s)|
+-----------------------------------------------------------------------+
+--------------------------------------+
|  Inner_Iter|   Time(sec)|    rms[Rho]|
+--------------------------------------+
|        3210|  1.1820e-01|   -6.850629|
|        3220|  1.1805e-01|   -6.824302|
|        3230|  1.1790e-01|   -6.791923|
|        3240|  1.1776e-01|   -6.889411|
|        3250|  1.1760e-01|   -6.934245|
+-----------------------------------------------------------------------+
|        File Writing Summary       |              Filename             |
+-----------------------------------------------------------------------+
|SU2 binary restart                 |restart_flow_databladeVALIDATION_Blade_14.dat|
|                                   |                     (11976.8 MB/s)|
|Paraview                           |volume_flow_databladeVALIDATION_Blade_14.vtu|
|                                   |                      (1039.1 MB/s)|
|Paraview surface                   |surface_flowdatabladeVALIDATION_Blade_14.vtu|
|                                   |                     (126.841 MB/s)|
|SU2 ASCII restart                  |restart_flow_databladeVALIDATION_Blade_14.csv|
|                                   |                     (20.5043 MB/s)|
|CSV file                           |surface_flowdatabladeVALIDATION_Blade_14.csv|
|                                   |                     (18.9795 MB/s)|
+-----------------------------------------------------------------------+
+--------------------------------------+
|  Inner_Iter|   Time(sec)|    rms[Rho]|
+--------------------------------------+
|        3260|  1.1816e-01|   -6.915140|
|        3270|  1.1802e-01|   -6.868309|
|        3280|  1.1785e-01|   -6.948089|
|        3290|  1.1770e-01|   -6.937189|
|        3300|  1.1755e-01|   -6.879224|
+-----------------------------------------------------------------------+
|        File Writing Summary       |              Filename             |
+-----------------------------------------------------------------------+
|SU2 binary restart                 |restart_flow_databladeVALIDATION_Blade_14.dat|
|                                   |                     (12355.4 MB/s)|
|Paraview                           |volume_flow_databladeVALIDATION_Blade_14.vtu|
|                                   |                     (870.696 MB/s)|
|Paraview surface                   |surface_flowdatabladeVALIDATION_Blade_14.vtu|
|                                   |                     (95.4494 MB/s)|
|SU2 ASCII restart                  |restart_flow_databladeVALIDATION_Blade_14.csv|
|                                   |                     (20.3054 MB/s)|
|CSV file                           |surface_flowdatabladeVALIDATION_Blade_14.csv|
|                                   |                     (19.3466 MB/s)|
+-----------------------------------------------------------------------+
+--------------------------------------+
|  Inner_Iter|   Time(sec)|    rms[Rho]|
+--------------------------------------+
|        3310|  1.1811e-01|   -6.907980|
|        3320|  1.1794e-01|   -6.928210|
|        3330|  1.1782e-01|   -6.893834|
|        3340|  1.1770e-01|   -6.829595|
|        3350|  1.1755e-01|   -6.954132|
+-----------------------------------------------------------------------+
|        File Writing Summary       |              Filename             |
+-----------------------------------------------------------------------+
|SU2 binary restart                 |restart_flow_databladeVALIDATION_Blade_14.dat|
|                                   |                     (10498.6 MB/s)|
|Paraview                           |volume_flow_databladeVALIDATION_Blade_14.vtu|
|                                   |                      (956.12 MB/s)|
|Paraview surface                   |surface_flowdatabladeVALIDATION_Blade_14.vtu|
|                                   |                     (95.0355 MB/s)|
|SU2 ASCII restart                  |restart_flow_databladeVALIDATION_Blade_14.csv|
|                                   |                     (20.4967 MB/s)|
|CSV file                           |surface_flowdatabladeVALIDATION_Blade_14.csv|
|                                   |                      (18.608 MB/s)|
+-----------------------------------------------------------------------+
+--------------------------------------+
|  Inner_Iter|   Time(sec)|    rms[Rho]|
+--------------------------------------+
|        3354|  1.1818e-01|   -7.003084|

----------------------------- Solver Exit -------------------------------
All convergence criteria satisfied.
+-----------------------------------------------------------------------+
|      Convergence Field     |     Value    |   Criterion  |  Converged |
+-----------------------------------------------------------------------+
|                    rms[Rho]|      -7.00308|          < -7|         Yes|
+-----------------------------------------------------------------------+
-------------------------------------------------------------------------
+-----------------------------------------------------------------------+
|        File Writing Summary       |              Filename             |
+-----------------------------------------------------------------------+
|SU2 binary restart                 |restart_flow_databladeVALIDATION_Blade_14.dat|
|                                   |                     (11267.1 MB/s)|
|Paraview                           |volume_flow_databladeVALIDATION_Blade_14.vtu|
|                                   |                      (928.29 MB/s)|
|Paraview surface                   |surface_flowdatabladeVALIDATION_Blade_14.vtu|
|                                   |                     (101.314 MB/s)|
|SU2 ASCII restart                  |restart_flow_databladeVALIDATION_Blade_14.csv|
|                                   |                      (20.986 MB/s)|
|CSV file                           |surface_flowdatabladeVALIDATION_Blade_14.csv|
|                                   |                     (19.5989 MB/s)|
+-----------------------------------------------------------------------+

--------------------------- Finalizing Solver ---------------------------
Deleted CNumerics container.
Deleted CIntegration container.
Deleted CSolver container.
Deleted CIteration container.
Deleted CInterface container.
Deleted CGeometry container.
Deleted CFreeFormDefBox class.
Deleted CSurfaceMovement class.
Deleted CVolumetricMovement class.
Deleted CConfig container.
Deleted nInst container.
Deleted COutput class.
-------------------------------------------------------------------------


-------------------------- Performance Summary --------------------------
Simulation totals:
   Wall-clock time (hrs):    0.110888 |            Core-hrs:     1.33065
                   Cores:          12 |          DOFs/point:           5
             Points/core:      4893.5 |   Ghost points/core:         143
 Ghost/Owned Point Ratio:   0.0292224 | 

Preprocessing phase:
       Preproc. Time (s):    0.440358 |   Preproc. Time (%):    0.110311

Compute phase:
        Compute Time (s):     396.491 |    Compute Time (%):     99.3224
         Iteration count:        3355 |         Avg. s/iter:    0.118179
     Core-s/iter/Mpoints:     23.4645 |           Mpoints/s:     0.51141

Output phase:
         Output Time (s):      2.2644 |     Output Time (%):     0.56724
            Output count:           1 |       Avg. s/output:      2.2644
 Restart Aggr. BW (MB/s):      725653 |           MB/s/core:     60471.1
-------------------------------------------------------------------------


------------------------- Exit Success (SU2_CFD) ------------------------

