
-------------------------------------------------------------------------
|    ___ _   _ ___                                                      |
|   / __| | | |_  )   Release 8.0.1 "Harrier"                           |
|   \__ \ |_| |/ /                                                      |
|   |___/\___//___|   Suite (Computational Fluid Dynamics Code)         |
|                                                                       |
-------------------------------------------------------------------------
| SU2 Project Website: https://su2code.github.io                        |
|                                                                       |
| The SU2 Project is maintained by the SU2 Foundation                   |
| (http://su2foundation.org)                                            |
-------------------------------------------------------------------------
| Copyright 2012-2024, SU2 Contributors                                 |
|                                                                       |
| SU2 is free software; you can redistribute it and/or                  |
| modify it under the terms of the GNU Lesser General Public            |
| License as published by the Free Software Foundation; either          |
| version 2.1 of the License, or (at your option) any later version.    |
|                                                                       |
| SU2 is distributed in the hope that it will be useful,                |
| but WITHOUT ANY WARRANTY; without even the implied warranty of        |
| MERCHANTABILITY or FITNESS FOR A PARTICULAR PURPOSE. See the GNU      |
| Lesser General Public License for more details.                       |
|                                                                       |
| You should have received a copy of the GNU Lesser General Public      |
| License along with SU2. If not, see <http://www.gnu.org/licenses/>.   |
-------------------------------------------------------------------------

Parsing config file for zone 0

----------------- Physical Case Definition ( Zone 0 ) -------------------
Compressible RANS equations.
Turbulence model: Spalart-Allmaras-noft2-BCM
Hybrid RANS/LES: No Hybrid RANS/LES
Mach number: 0.5.
Angle of attack (AoA): -19 deg, and angle of sideslip (AoS): 0 deg.
Reynolds number: 600000. Reference length 1.00082.
No restart solution, use the values at infinity (freestream).
Dimensional simulation.
The reference area will be computed using y(2D) or z(3D) projection.
The semi-span will be computed using the max y(3D) value.
The reference length is 1.00082 m.
Reference origin for moment evaluation is (0, 0, 0).
Surface(s) where the force coefficients are evaluated: blade1.

Surface(s) plotted in the output file: blade1.
Surface(s) to be analyzed in detail: inlet, outlet, blade1.
Input mesh file name: cascade2D_databladeVALIDATION_Blade_26.su2

--------------- Space Numerical Integration ( Zone 0 ) ------------------
Jameson-Schmidt-Turkel scheme (2nd order in space) for the flow inviscid terms.
JST viscous coefficients (2nd & 4th): 0.5, 0.02.
The method includes a grid stretching correction (p = 0.3).
Scalar upwind solver for the turbulence model.
First order integration in space.
Average of gradients with correction (viscous flow terms).
Average of gradients with correction (viscous turbulence terms).
Gradient for upwind reconstruction: inverse-distance weighted Least-Squares.
Gradient for viscous and source terms: inverse-distance weighted Least-Squares.

--------------- Time Numerical Integration  ( Zone 0 ) ------------------
Local time stepping (steady state simulation).
Euler implicit method for the flow equations.
FGMRES is used for solving the linear system.
Using a LU-SGS preconditioning.
Convergence criteria of the linear solver: 0.0001.
Max number of linear iterations: 10.
V Multigrid Cycle, with 3 multigrid levels.
Damping factor for the residual restriction: 0.75.
Damping factor for the correction prolongation: 0.75.
CFL adaptation. Factor down: 0.1, factor up: 1.2,
                lower limit: 0.1, upper limit: 100,
                acceptable linear residual: 0.001.
+-------------------------------------------+
|  MG Level| Presmooth|PostSmooth|CorrectSmo|
+-------------------------------------------+
|         0|         1|         0|         1|
|         1|         2|         2|         2|
|         2|         3|         3|         3|
|         3|         3|         0|         0|
+-------------------------------------------+
Courant-Friedrichs-Lewy number:       12
Euler implicit time integration for the turbulence model.

------------------ Convergence Criteria  ( Zone 0 ) ---------------------
Maximum number of solver subiterations: 7000.
Begin convergence monitoring at iteration 500.
Residual minimum value: 1e-7.
Cauchy series min. value: 1e-10.
Number of Cauchy elements: 100.
Begin windowed time average at iteration 0.

-------------------- Output Information ( Zone 0 ) ----------------------
File writing frequency: 
+------------------------------------+
|                     File| Frequency|
+------------------------------------+
|                  RESTART|        50|
|                 PARAVIEW|        50|
|         SURFACE_PARAVIEW|        50|
|                      CSV|        50|
|              SURFACE_CSV|        50|
+------------------------------------+
Writing the convergence history file every 1 inner iterations.
Writing the screen convergence history every 10 inner iterations.
The tabular file format is CSV (.csv).
Convergence history file name: history_databladeVALIDATION_Blade_26.
Forces breakdown file name: forces_breakdown.dat.
Surface file name: surface_flowdatabladeVALIDATION_Blade_26.
Volume file name: volume_flow_databladeVALIDATION_Blade_26.
Restart file name: restart_flow_databladeVALIDATION_Blade_26.dat.

------------- Config File Boundary Information ( Zone 0 ) ---------------
+-----------------------------------------------------------------------+
|                        Marker Type|                        Marker Name|
+-----------------------------------------------------------------------+
|                  Periodic boundary|               symmetricWallsBOTTOM|
|                                   |                  symmetricWallsTOP|
+-----------------------------------------------------------------------+
|                     Inlet boundary|                              inlet|
+-----------------------------------------------------------------------+
|                    Outlet boundary|                             outlet|
+-----------------------------------------------------------------------+
|                     Heat flux wall|                             blade1|
|                                   |                             blade2|
+-----------------------------------------------------------------------+

-------------------- Output Preprocessing ( Zone 0 ) --------------------
  Info: Ignoring the following screen output fields:
  LINSOL_ITER_TRANS, LINSOL_RESIDUAL_TRANS
Screen output fields: INNER_ITER, WALL_TIME, RMS_DENSITY
  Info: Ignoring the following history output groups:
  RMS_TKE, RMS_DISSIPATION
History output group(s): INNER_ITER, WALL_TIME, RMS_DENSITY, RMS_MOMENTUM-X, RMS_ENERGY, LINSOL, CFL_NUMBER, FLOW_COEFF_SURF, AERO_COEFF_SURF
Convergence field(s): RMS_DENSITY
Warning: No (valid) fields chosen for time convergence monitoring. Time convergence monitoring inactive.
Volume output fields: COORDINATES, SOLUTION, PRIMITIVE, RESIDUAL, TIMESTEP, MESH_QUALITY, VORTEX_IDENTIFICATION

------------------- Geometry Preprocessing ( Zone 0 ) -------------------
Two dimensional problem.
66559 grid points before partitioning.
102282 volume elements before partitioning.
5 surface markers.
33 boundary elements in index 0 (Marker = inlet).
530 boundary elements in index 1 (Marker = symmetricWallsBOTTOM).
530 boundary elements in index 2 (Marker = symmetricWallsTOP).
93 boundary elements in index 3 (Marker = outlet).
1186 boundary elements in index 4 (Marker = blade1).
Executing the partitioning functions.
Building the graph adjacency structure.
Calling ParMETIS... graph partitioning complete (1369 edge cuts).
Distributing ParMETIS coloring.
Rebalancing vertices.
Rebalancing volume element connectivity.
Rebalancing markers and surface elements.
68243 vertices including ghost points. 
103640 interior elements including halo cells. 
74874 triangles.
28766 quadrilaterals.
Establishing MPI communication patterns.
Setting point connectivity.
Renumbering points (Reverse Cuthill McKee Ordering).
Recomputing point connectivity.
Setting element connectivity.
Checking the numerical grid orientation.
All volume elements are correctly orientend.
There has been a re-orientation of 1166 LINE surface elements.
Identifying edges and vertices.
Setting the control volume structure.
Area of the computational grid: 4.19747.
Searching for the closest normal neighbors to the surfaces.
Storing a mapping from global to local point index.
Compute the surface curvature.
Max K: 102.794. Mean K: 2.60108. Standard deviation K: 9.95392.
Checking for periodicity.
WARNING: Periodicity has been detected. Disabling multigrid. 
Computing mesh quality statistics for the dual control volumes.
+--------------------------------------------------------------+
|           Mesh Quality Metric|        Minimum|        Maximum|
+--------------------------------------------------------------+
|    Orthogonality Angle (deg.)|        30.8178|             90|
|     CV Face Area Aspect Ratio|        1.00066|         408.58|
|           CV Sub-Volume Ratio|              1|        17.1945|
+--------------------------------------------------------------+
Finding max control volume width.
Communicating number of neighbors.
Reference length = 1.02217 m.
Wetted area = 3.52382 m.
Area projection in the x-plane = 1.2478 m, y-plane = 1.02217 m.
Max. coordinate in the x-direction = 1.01764 m, y-direction = 0.922175 m.
Min. coordinate in the x-direction = -0.00454151 m, y-direction = -0.325632 m.
Matching the periodic boundary points for marker pair 1.
 Matched 1062 points with a max distance of: 1.94251e-13.
Computing wall distances.

-------------------- Solver Preprocessing ( Zone 0 ) --------------------
Viscous flow: Computing pressure using the ideal gas law
based on the free-stream temperature and a density computed
from the Reynolds number.
Force coefficients computed using free-stream values.

-- Models:
+------------------------------------------------------------------------------+
|          Viscosity Model|        Conductivity Model|              Fluid Model|
+------------------------------------------------------------------------------+
|               SUTHERLAND|          CONSTANT_PRANDTL|                IDEAL_GAS|
+------------------------------------------------------------------------------+
-- Fluid properties:
+------------------------------------------------------------------------------+
|                  Name|    Dim. value|    Ref. value|      Unit|Non-dim. value|
+------------------------------------------------------------------------------+
|        Ref. Viscosity|     1.716e-05|             1|   N.s/m^2|     1.716e-05|
|      Sutherland Temp.|        273.15|             1|         K|        273.15|
|     Sutherland Const.|         110.4|             1|         K|         110.4|
+------------------------------------------------------------------------------+
|        Prandtl (Lam.)|             -|             -|         -|          0.72|
|       Prandtl (Turb.)|             -|             -|         -|           0.9|
+------------------------------------------------------------------------------+
|          Gas Constant|       287.058|             1|  N.m/kg.K|       287.058|
|      Spec. Heat Ratio|             -|             -|         -|           1.4|
+------------------------------------------------------------------------------+
-- Initial and free-stream conditions:
+------------------------------------------------------------------------------+
|                  Name|    Dim. value|    Ref. value|      Unit|Non-dim. value|
+------------------------------------------------------------------------------+
|       Static Pressure|       5489.32|             1|        Pa|       5489.32|
|               Density|     0.0637423|             1|    kg/m^3|     0.0637423|
|           Temperature|           300|             1|         K|           300|
|          Total Energy|        230364|             1|   m^2/s^2|        230364|
|            Velocity-X|       164.153|             1|       m/s|       164.153|
|            Velocity-Y|      -56.5225|             1|       m/s|      -56.5225|
|    Velocity Magnitude|       173.612|             1|       m/s|       173.612|
+------------------------------------------------------------------------------+
|             Viscosity|   1.84592e-05|             1|   N.s/m^2|   1.84592e-05|
|          Conductivity|             -|             1|   W/m^2.K|             -|
|     Turb. Kin. Energy|       55.3843|             1|   m^2/s^2|       55.3843|
|     Spec. Dissipation|    1.9125e+06|             1|       1/s|    1.9125e+06|
+------------------------------------------------------------------------------+
|           Mach Number|             -|             -|         -|           0.5|
|       Reynolds Number|             -|             -|         -|        600000|
+------------------------------------------------------------------------------+
Initialize Jacobian structure (Navier-Stokes). MG level: 0.
Initialize Jacobian structure (SA model).

------------------- Numerics Preprocessing ( Zone 0 ) -------------------

----------------- Integration Preprocessing ( Zone 0 ) ------------------

------------------- Iteration Preprocessing ( Zone 0 ) ------------------
Euler/Navier-Stokes/RANS fluid iteration.

------------------------------ Begin Solver -----------------------------

Simulation Run using the Single-zone Driver
WARNING: SU2 was not compiled for an AVX-capable architecture. Performance could be better,
         see https://su2code.github.io/docs_v7/Build-SU2-Linux-MacOS/#compiler-optimizations
+--------------------------------------+
|  Inner_Iter|   Time(sec)|    rms[Rho]|
+--------------------------------------+
|           0|  9.5908e-02|   -2.415007|
|          10|  7.2759e-02|   -3.055481|
|          20|  7.2854e-02|   -2.899420|
|          30|  7.4095e-02|   -2.791154|
|          40|  7.2090e-02|   -2.818055|
|          50|  7.1737e-02|   -2.882079|
+-----------------------------------------------------------------------+
|        File Writing Summary       |              Filename             |
+-----------------------------------------------------------------------+
|SU2 binary restart                 |restart_flow_databladeVALIDATION_Blade_26.dat|
|                                   |                     (3370.75 MB/s)|
|Paraview                           |volume_flow_databladeVALIDATION_Blade_26.vtu|
|                                   |                     (1182.24 MB/s)|
|Paraview surface                   |surface_flowdatabladeVALIDATION_Blade_26.vtu|
|                                   |                     (93.7822 MB/s)|
|SU2 ASCII restart                  |restart_flow_databladeVALIDATION_Blade_26.csv|
|                                   |                     (21.0849 MB/s)|
|CSV file                           |surface_flowdatabladeVALIDATION_Blade_26.csv|
|                                   |                     (21.9061 MB/s)|
+-----------------------------------------------------------------------+
+--------------------------------------+
|  Inner_Iter|   Time(sec)|    rms[Rho]|
+--------------------------------------+
|          60|  1.1536e-01|   -2.904395|
|          70|  1.0898e-01|   -3.002406|
|          80|  1.0506e-01|   -3.020351|
|          90|  1.0310e-01|   -2.944877|
|         100|  1.0118e-01|   -2.952272|
+-----------------------------------------------------------------------+
|        File Writing Summary       |              Filename             |
+-----------------------------------------------------------------------+
|SU2 binary restart                 |restart_flow_databladeVALIDATION_Blade_26.dat|
|                                   |                     (13800.7 MB/s)|
|Paraview                           |volume_flow_databladeVALIDATION_Blade_26.vtu|
|                                   |                     (1023.46 MB/s)|
|Paraview surface                   |surface_flowdatabladeVALIDATION_Blade_26.vtu|
|                                   |                     (80.6362 MB/s)|
|SU2 ASCII restart                  |restart_flow_databladeVALIDATION_Blade_26.csv|
|                                   |                     (21.4982 MB/s)|
|CSV file                           |surface_flowdatabladeVALIDATION_Blade_26.csv|
|                                   |                     (22.2915 MB/s)|
+-----------------------------------------------------------------------+
+--------------------------------------+
|  Inner_Iter|   Time(sec)|    rms[Rho]|
+--------------------------------------+
|         110|  1.2098e-01|   -3.069379|
|         120|  1.1662e-01|   -3.026269|
|         130|  1.1376e-01|   -3.013519|
|         140|  1.1122e-01|   -2.991311|
|         150|  1.0808e-01|   -3.076758|
+-----------------------------------------------------------------------+
|        File Writing Summary       |              Filename             |
+-----------------------------------------------------------------------+
|SU2 binary restart                 |restart_flow_databladeVALIDATION_Blade_26.dat|
|                                   |                     (4031.94 MB/s)|
|Paraview                           |volume_flow_databladeVALIDATION_Blade_26.vtu|
|                                   |                     (1058.71 MB/s)|
|Paraview surface                   |surface_flowdatabladeVALIDATION_Blade_26.vtu|
|                                   |                     (96.9385 MB/s)|
|SU2 ASCII restart                  |restart_flow_databladeVALIDATION_Blade_26.csv|
|                                   |                     (21.5027 MB/s)|
|CSV file                           |surface_flowdatabladeVALIDATION_Blade_26.csv|
|                                   |                     (20.3181 MB/s)|
+-----------------------------------------------------------------------+
+--------------------------------------+
|  Inner_Iter|   Time(sec)|    rms[Rho]|
+--------------------------------------+
|         160|  1.2084e-01|   -3.107141|
|         170|  1.1852e-01|   -3.015954|
|         180|  1.1604e-01|   -3.050661|
|         190|  1.1358e-01|   -3.061486|
|         200|  1.1185e-01|   -3.058515|
+-----------------------------------------------------------------------+
|        File Writing Summary       |              Filename             |
+-----------------------------------------------------------------------+
|SU2 binary restart                 |restart_flow_databladeVALIDATION_Blade_26.dat|
|                                   |                        (9758 MB/s)|
|Paraview                           |volume_flow_databladeVALIDATION_Blade_26.vtu|
|                                   |                      (816.88 MB/s)|
|Paraview surface                   |surface_flowdatabladeVALIDATION_Blade_26.vtu|
|                                   |                     (91.7933 MB/s)|
|SU2 ASCII restart                  |restart_flow_databladeVALIDATION_Blade_26.csv|
|                                   |                     (21.5148 MB/s)|
|CSV file                           |surface_flowdatabladeVALIDATION_Blade_26.csv|
|                                   |                     (22.0034 MB/s)|
+-----------------------------------------------------------------------+
+--------------------------------------+
|  Inner_Iter|   Time(sec)|    rms[Rho]|
+--------------------------------------+
|         210|  1.2236e-01|   -2.909208|
|         220|  1.2003e-01|   -2.984878|
|         230|  1.1761e-01|   -3.074856|
|         240|  1.1587e-01|   -3.053776|
|         250|  1.1438e-01|   -3.080987|
+-----------------------------------------------------------------------+
|        File Writing Summary       |              Filename             |
+-----------------------------------------------------------------------+
|SU2 binary restart                 |restart_flow_databladeVALIDATION_Blade_26.dat|
|                                   |                     (11561.4 MB/s)|
|Paraview                           |volume_flow_databladeVALIDATION_Blade_26.vtu|
|                                   |                     (1146.53 MB/s)|
|Paraview surface                   |surface_flowdatabladeVALIDATION_Blade_26.vtu|
|                                   |                     (98.4828 MB/s)|
|SU2 ASCII restart                  |restart_flow_databladeVALIDATION_Blade_26.csv|
|                                   |                     (21.9506 MB/s)|
|CSV file                           |surface_flowdatabladeVALIDATION_Blade_26.csv|
|                                   |                     (20.6705 MB/s)|
+-----------------------------------------------------------------------+
+--------------------------------------+
|  Inner_Iter|   Time(sec)|    rms[Rho]|
+--------------------------------------+
|         260|  1.2184e-01|   -3.072295|
|         270|  1.1986e-01|   -3.102664|
|         280|  1.1835e-01|   -3.043495|
|         290|  1.1670e-01|   -3.165613|
|         300|  1.1497e-01|   -3.266162|
+-----------------------------------------------------------------------+
|        File Writing Summary       |              Filename             |
+-----------------------------------------------------------------------+
|SU2 binary restart                 |restart_flow_databladeVALIDATION_Blade_26.dat|
|                                   |                     (11725.6 MB/s)|
|Paraview                           |volume_flow_databladeVALIDATION_Blade_26.vtu|
|                                   |                      (1139.3 MB/s)|
|Paraview surface                   |surface_flowdatabladeVALIDATION_Blade_26.vtu|
|                                   |                     (55.9884 MB/s)|
|SU2 ASCII restart                  |restart_flow_databladeVALIDATION_Blade_26.csv|
|                                   |                     (21.1851 MB/s)|
|CSV file                           |surface_flowdatabladeVALIDATION_Blade_26.csv|
|                                   |                     (21.8054 MB/s)|
+-----------------------------------------------------------------------+
+--------------------------------------+
|  Inner_Iter|   Time(sec)|    rms[Rho]|
+--------------------------------------+
|         310|  1.2269e-01|   -3.101690|
|         320|  1.2139e-01|   -3.279354|
|         330|  1.2057e-01|   -3.283066|
|         340|  1.2017e-01|   -3.161984|
|         350|  1.1918e-01|   -3.275837|
+-----------------------------------------------------------------------+
|        File Writing Summary       |              Filename             |
+-----------------------------------------------------------------------+
|SU2 binary restart                 |restart_flow_databladeVALIDATION_Blade_26.dat|
|                                   |                     (12767.6 MB/s)|
|Paraview                           |volume_flow_databladeVALIDATION_Blade_26.vtu|
|                                   |                     (986.579 MB/s)|
|Paraview surface                   |surface_flowdatabladeVALIDATION_Blade_26.vtu|
|                                   |                     (72.0477 MB/s)|
|SU2 ASCII restart                  |restart_flow_databladeVALIDATION_Blade_26.csv|
|                                   |                      (21.225 MB/s)|
|CSV file                           |surface_flowdatabladeVALIDATION_Blade_26.csv|
|                                   |                     (18.8011 MB/s)|
+-----------------------------------------------------------------------+
+--------------------------------------+
|  Inner_Iter|   Time(sec)|    rms[Rho]|
+--------------------------------------+
|         360|  1.2519e-01|   -3.399613|
|         370|  1.2411e-01|   -3.337572|
|         380|  1.2299e-01|   -3.335109|
|         390|  1.2192e-01|   -3.473631|
|         400|  1.2114e-01|   -3.539207|
+-----------------------------------------------------------------------+
|        File Writing Summary       |              Filename             |
+-----------------------------------------------------------------------+
|SU2 binary restart                 |restart_flow_databladeVALIDATION_Blade_26.dat|
|                                   |                     (13285.6 MB/s)|
|Paraview                           |volume_flow_databladeVALIDATION_Blade_26.vtu|
|                                   |                     (1134.18 MB/s)|
|Paraview surface                   |surface_flowdatabladeVALIDATION_Blade_26.vtu|
|                                   |                      (73.145 MB/s)|
|SU2 ASCII restart                  |restart_flow_databladeVALIDATION_Blade_26.csv|
|                                   |                      (20.484 MB/s)|
|CSV file                           |surface_flowdatabladeVALIDATION_Blade_26.csv|
|                                   |                     (18.8958 MB/s)|
+-----------------------------------------------------------------------+
+--------------------------------------+
|  Inner_Iter|   Time(sec)|    rms[Rho]|
+--------------------------------------+
|         410|  1.2674e-01|   -3.301475|
|         420|  1.2594e-01|   -3.366253|
|         430|  1.2555e-01|   -3.310185|
|         440|  1.2469e-01|   -3.492171|
|         450|  1.2396e-01|   -3.362866|
+-----------------------------------------------------------------------+
|        File Writing Summary       |              Filename             |
+-----------------------------------------------------------------------+
|SU2 binary restart                 |restart_flow_databladeVALIDATION_Blade_26.dat|
|                                   |                     (13137.8 MB/s)|
|Paraview                           |volume_flow_databladeVALIDATION_Blade_26.vtu|
|                                   |                      (1179.4 MB/s)|
|Paraview surface                   |surface_flowdatabladeVALIDATION_Blade_26.vtu|
|                                   |                     (105.374 MB/s)|
|SU2 ASCII restart                  |restart_flow_databladeVALIDATION_Blade_26.csv|
|                                   |                     (21.3879 MB/s)|
|CSV file                           |surface_flowdatabladeVALIDATION_Blade_26.csv|
|                                   |                     (20.5623 MB/s)|
+-----------------------------------------------------------------------+
+--------------------------------------+
|  Inner_Iter|   Time(sec)|    rms[Rho]|
+--------------------------------------+
|         460|  1.2838e-01|   -3.378149|
|         470|  1.2745e-01|   -3.271293|
|         480|  1.2617e-01|   -3.040030|
|         490|  1.2504e-01|   -3.066581|
|         500|  1.2395e-01|   -2.852261|
+-----------------------------------------------------------------------+
|        File Writing Summary       |              Filename             |
+-----------------------------------------------------------------------+
|SU2 binary restart                 |restart_flow_databladeVALIDATION_Blade_26.dat|
|                                   |                     (11144.5 MB/s)|
|Paraview                           |volume_flow_databladeVALIDATION_Blade_26.vtu|
|                                   |                     (962.885 MB/s)|
|Paraview surface                   |surface_flowdatabladeVALIDATION_Blade_26.vtu|
|                                   |                     (68.3796 MB/s)|
|SU2 ASCII restart                  |restart_flow_databladeVALIDATION_Blade_26.csv|
|                                   |                     (21.0632 MB/s)|
|CSV file                           |surface_flowdatabladeVALIDATION_Blade_26.csv|
|                                   |                     (21.8263 MB/s)|
+-----------------------------------------------------------------------+
+--------------------------------------+
|  Inner_Iter|   Time(sec)|    rms[Rho]|
+--------------------------------------+
|         510|  1.2732e-01|   -2.857318|
|         520|  1.2595e-01|   -2.868695|
|         530|  1.2503e-01|   -2.622449|
|         540|  1.2406e-01|   -2.455575|
|         550|  1.2262e-01|   -2.483598|
+-----------------------------------------------------------------------+
|        File Writing Summary       |              Filename             |
+-----------------------------------------------------------------------+
|SU2 binary restart                 |restart_flow_databladeVALIDATION_Blade_26.dat|
|                                   |                     (12534.7 MB/s)|
|Paraview                           |volume_flow_databladeVALIDATION_Blade_26.vtu|
|                                   |                     (1312.81 MB/s)|
|Paraview surface                   |surface_flowdatabladeVALIDATION_Blade_26.vtu|
|                                   |                      (101.72 MB/s)|
|SU2 ASCII restart                  |restart_flow_databladeVALIDATION_Blade_26.csv|
|                                   |                     (21.5962 MB/s)|
|CSV file                           |surface_flowdatabladeVALIDATION_Blade_26.csv|
|                                   |                     (20.6051 MB/s)|
+-----------------------------------------------------------------------+
+--------------------------------------+
|  Inner_Iter|   Time(sec)|    rms[Rho]|
+--------------------------------------+
|         560|  1.2582e-01|   -2.414684|
|         570|  1.2510e-01|   -2.214790|
|         580|  1.2435e-01|   -2.167746|
|         590|  1.2313e-01|   -2.182985|
|         600|  1.2190e-01|   -2.189556|
+-----------------------------------------------------------------------+
|        File Writing Summary       |              Filename             |
+-----------------------------------------------------------------------+
|SU2 binary restart                 |restart_flow_databladeVALIDATION_Blade_26.dat|
|                                   |                       (13338 MB/s)|
|Paraview                           |volume_flow_databladeVALIDATION_Blade_26.vtu|
|                                   |                     (1302.96 MB/s)|
|Paraview surface                   |surface_flowdatabladeVALIDATION_Blade_26.vtu|
|                                   |                      (129.86 MB/s)|
|SU2 ASCII restart                  |restart_flow_databladeVALIDATION_Blade_26.csv|
|                                   |                      (21.744 MB/s)|
|CSV file                           |surface_flowdatabladeVALIDATION_Blade_26.csv|
|                                   |                     (19.3336 MB/s)|
+-----------------------------------------------------------------------+
+--------------------------------------+
|  Inner_Iter|   Time(sec)|    rms[Rho]|
+--------------------------------------+
|         610|  1.2519e-01|   -2.095623|
|         620|  1.2438e-01|   -2.009200|
|         630|  1.2370e-01|   -2.017665|
|         640|  1.2294e-01|   -2.073453|
|         650|  1.2215e-01|   -2.012469|
+-----------------------------------------------------------------------+
|        File Writing Summary       |              Filename             |
+-----------------------------------------------------------------------+
|SU2 binary restart                 |restart_flow_databladeVALIDATION_Blade_26.dat|
|                                   |                       (11453 MB/s)|
|Paraview                           |volume_flow_databladeVALIDATION_Blade_26.vtu|
|                                   |                     (1227.31 MB/s)|
|Paraview surface                   |surface_flowdatabladeVALIDATION_Blade_26.vtu|
|                                   |                      (97.582 MB/s)|
|SU2 ASCII restart                  |restart_flow_databladeVALIDATION_Blade_26.csv|
|                                   |                     (21.7757 MB/s)|
|CSV file                           |surface_flowdatabladeVALIDATION_Blade_26.csv|
|                                   |                     (22.1373 MB/s)|
+-----------------------------------------------------------------------+
+--------------------------------------+
|  Inner_Iter|   Time(sec)|    rms[Rho]|
+--------------------------------------+
|         660|  1.2510e-01|   -2.023776|
|         670|  1.2436e-01|   -2.014528|
|         680|  1.2361e-01|   -1.985622|
|         690|  1.2240e-01|   -2.003667|
|         700|  1.2122e-01|   -2.008039|
+-----------------------------------------------------------------------+
|        File Writing Summary       |              Filename             |
+-----------------------------------------------------------------------+
|SU2 binary restart                 |restart_flow_databladeVALIDATION_Blade_26.dat|
|                                   |                       (13877 MB/s)|
|Paraview                           |volume_flow_databladeVALIDATION_Blade_26.vtu|
|                                   |                     (1016.29 MB/s)|
|Paraview surface                   |surface_flowdatabladeVALIDATION_Blade_26.vtu|
|                                   |                     (90.6679 MB/s)|
|SU2 ASCII restart                  |restart_flow_databladeVALIDATION_Blade_26.csv|
|                                   |                     (21.5188 MB/s)|
|CSV file                           |surface_flowdatabladeVALIDATION_Blade_26.csv|
|                                   |                     (21.0692 MB/s)|
+-----------------------------------------------------------------------+
+--------------------------------------+
|  Inner_Iter|   Time(sec)|    rms[Rho]|
+--------------------------------------+
|         710|  1.2359e-01|   -2.008834|
|         720|  1.2244e-01|   -2.007669|
|         730|  1.2138e-01|   -2.002884|
|         740|  1.2043e-01|   -1.948604|


Error in "void CSolver::SetResidual_RMS(const CGeometry*, const CConfig*)": 
-------------------------------------------------------------------------
SU2 has diverged (NaN detected).
------------------------------ Error Exit -------------------------------



job aborted:
[ranks] message

[0] application aborted
aborting MPI_COMM_WORLD (comm=0x44000000), error 1, comm rank 0

[1-11] terminated

---- error analysis -----

[0] on LAPTOP-UFVPVEMV
SU2_CFD aborted the job. abort code 1

---- error analysis -----
