
-------------------------------------------------------------------------
|    ___ _   _ ___                                                      |
|   / __| | | |_  )   Release 8.0.1 "Harrier"                           |
|   \__ \ |_| |/ /                                                      |
|   |___/\___//___|   Suite (Computational Fluid Dynamics Code)         |
|                                                                       |
-------------------------------------------------------------------------
| SU2 Project Website: https://su2code.github.io                        |
|                                                                       |
| The SU2 Project is maintained by the SU2 Foundation                   |
| (http://su2foundation.org)                                            |
-------------------------------------------------------------------------
| Copyright 2012-2024, SU2 Contributors                                 |
|                                                                       |
| SU2 is free software; you can redistribute it and/or                  |
| modify it under the terms of the GNU Lesser General Public            |
| License as published by the Free Software Foundation; either          |
| version 2.1 of the License, or (at your option) any later version.    |
|                                                                       |
| SU2 is distributed in the hope that it will be useful,                |
| but WITHOUT ANY WARRANTY; without even the implied warranty of        |
| MERCHANTABILITY or FITNESS FOR A PARTICULAR PURPOSE. See the GNU      |
| Lesser General Public License for more details.                       |
|                                                                       |
| You should have received a copy of the GNU Lesser General Public      |
| License along with SU2. If not, see <http://www.gnu.org/licenses/>.   |
-------------------------------------------------------------------------

Parsing config file for zone 0

----------------- Physical Case Definition ( Zone 0 ) -------------------
Compressible RANS equations.
Turbulence model: Spalart-Allmaras-noft2-BCM
Hybrid RANS/LES: No Hybrid RANS/LES
Mach number: 0.5.
Angle of attack (AoA): -31 deg, and angle of sideslip (AoS): 0 deg.
Reynolds number: 600000. Reference length 1.00071.
No restart solution, use the values at infinity (freestream).
Dimensional simulation.
The reference area will be computed using y(2D) or z(3D) projection.
The semi-span will be computed using the max y(3D) value.
The reference length is 1.00071 m.
Reference origin for moment evaluation is (0, 0, 0).
Surface(s) where the force coefficients are evaluated: blade1.

Surface(s) plotted in the output file: blade1.
Surface(s) to be analyzed in detail: inlet, outlet, blade1.
Input mesh file name: cascade2D_databladeVALIDATION_Blade_18.su2

--------------- Space Numerical Integration ( Zone 0 ) ------------------
Jameson-Schmidt-Turkel scheme (2nd order in space) for the flow inviscid terms.
JST viscous coefficients (2nd & 4th): 0.5, 0.02.
The method includes a grid stretching correction (p = 0.3).
Scalar upwind solver for the turbulence model.
First order integration in space.
Average of gradients with correction (viscous flow terms).
Average of gradients with correction (viscous turbulence terms).
Gradient for upwind reconstruction: inverse-distance weighted Least-Squares.
Gradient for viscous and source terms: inverse-distance weighted Least-Squares.

--------------- Time Numerical Integration  ( Zone 0 ) ------------------
Local time stepping (steady state simulation).
Euler implicit method for the flow equations.
FGMRES is used for solving the linear system.
Using a LU-SGS preconditioning.
Convergence criteria of the linear solver: 0.0001.
Max number of linear iterations: 10.
V Multigrid Cycle, with 3 multigrid levels.
Damping factor for the residual restriction: 0.75.
Damping factor for the correction prolongation: 0.75.
CFL adaptation. Factor down: 0.1, factor up: 1.2,
                lower limit: 0.1, upper limit: 100,
                acceptable linear residual: 0.001.
+-------------------------------------------+
|  MG Level| Presmooth|PostSmooth|CorrectSmo|
+-------------------------------------------+
|         0|         1|         0|         1|
|         1|         2|         2|         2|
|         2|         3|         3|         3|
|         3|         3|         0|         0|
+-------------------------------------------+
Courant-Friedrichs-Lewy number:       12
Euler implicit time integration for the turbulence model.

------------------ Convergence Criteria  ( Zone 0 ) ---------------------
Maximum number of solver subiterations: 7000.
Begin convergence monitoring at iteration 500.
Residual minimum value: 1e-7.
Cauchy series min. value: 1e-10.
Number of Cauchy elements: 100.
Begin windowed time average at iteration 0.

-------------------- Output Information ( Zone 0 ) ----------------------
File writing frequency: 
+------------------------------------+
|                     File| Frequency|
+------------------------------------+
|                  RESTART|        50|
|                 PARAVIEW|        50|
|         SURFACE_PARAVIEW|        50|
|                      CSV|        50|
|              SURFACE_CSV|        50|
+------------------------------------+
Writing the convergence history file every 1 inner iterations.
Writing the screen convergence history every 10 inner iterations.
The tabular file format is CSV (.csv).
Convergence history file name: history_databladeVALIDATION_Blade_18.
Forces breakdown file name: forces_breakdown.dat.
Surface file name: surface_flowdatabladeVALIDATION_Blade_18.
Volume file name: volume_flow_databladeVALIDATION_Blade_18.
Restart file name: restart_flow_databladeVALIDATION_Blade_18.dat.

------------- Config File Boundary Information ( Zone 0 ) ---------------
+-----------------------------------------------------------------------+
|                        Marker Type|                        Marker Name|
+-----------------------------------------------------------------------+
|                  Periodic boundary|               symmetricWallsBOTTOM|
|                                   |                  symmetricWallsTOP|
+-----------------------------------------------------------------------+
|                     Inlet boundary|                              inlet|
+-----------------------------------------------------------------------+
|                    Outlet boundary|                             outlet|
+-----------------------------------------------------------------------+
|                     Heat flux wall|                             blade1|
|                                   |                             blade2|
+-----------------------------------------------------------------------+

-------------------- Output Preprocessing ( Zone 0 ) --------------------
  Info: Ignoring the following screen output fields:
  LINSOL_ITER_TRANS, LINSOL_RESIDUAL_TRANS
Screen output fields: INNER_ITER, WALL_TIME, RMS_DENSITY
  Info: Ignoring the following history output groups:
  RMS_TKE, RMS_DISSIPATION
History output group(s): INNER_ITER, WALL_TIME, RMS_DENSITY, RMS_MOMENTUM-X, RMS_ENERGY, LINSOL, CFL_NUMBER, FLOW_COEFF_SURF, AERO_COEFF_SURF
Convergence field(s): RMS_DENSITY
Warning: No (valid) fields chosen for time convergence monitoring. Time convergence monitoring inactive.
Volume output fields: COORDINATES, SOLUTION, PRIMITIVE, RESIDUAL, TIMESTEP, MESH_QUALITY, VORTEX_IDENTIFICATION

------------------- Geometry Preprocessing ( Zone 0 ) -------------------
Two dimensional problem.
59595 grid points before partitioning.
88530 volume elements before partitioning.
5 surface markers.
32 boundary elements in index 0 (Marker = inlet).
473 boundary elements in index 1 (Marker = symmetricWallsBOTTOM).
473 boundary elements in index 2 (Marker = symmetricWallsTOP).
32 boundary elements in index 3 (Marker = outlet).
1186 boundary elements in index 4 (Marker = blade1).
Executing the partitioning functions.
Building the graph adjacency structure.
Calling ParMETIS... graph partitioning complete (1256 edge cuts).
Distributing ParMETIS coloring.
Rebalancing vertices.
Rebalancing volume element connectivity.
Rebalancing markers and surface elements.
61170 vertices including ghost points. 
89777 interior elements including halo cells. 
61009 triangles.
28768 quadrilaterals.
Establishing MPI communication patterns.
Setting point connectivity.
Renumbering points (Reverse Cuthill McKee Ordering).
Recomputing point connectivity.
Setting element connectivity.
Checking the numerical grid orientation.
All volume elements are correctly orientend.
There has been a re-orientation of 1106 LINE surface elements.
Identifying edges and vertices.
Setting the control volume structure.
Area of the computational grid: 4.02736.
Searching for the closest normal neighbors to the surfaces.
Storing a mapping from global to local point index.
Compute the surface curvature.
Max K: 102.634. Mean K: 2.82861. Standard deviation K: 10.4564.
Checking for periodicity.
WARNING: Periodicity has been detected. Disabling multigrid. 
Computing mesh quality statistics for the dual control volumes.
+--------------------------------------------------------------+
|           Mesh Quality Metric|        Minimum|        Maximum|
+--------------------------------------------------------------+
|    Orthogonality Angle (deg.)|        29.0114|             90|
|     CV Face Area Aspect Ratio|        1.00001|        425.756|
|           CV Sub-Volume Ratio|              1|        22.3286|
+--------------------------------------------------------------+
Finding max control volume width.
Communicating number of neighbors.
Reference length = 1.02628 m.
Wetted area = 3.62821 m.
Area projection in the x-plane = 1.2983 m, y-plane = 1.02628 m.
Max. coordinate in the x-direction = 1.01736 m, y-direction = 0.93517 m.
Min. coordinate in the x-direction = -0.00895368 m, y-direction = -0.363136 m.
Matching the periodic boundary points for marker pair 1.
 Matched 948 points with a max distance of: 3.80808e-13.
Computing wall distances.

-------------------- Solver Preprocessing ( Zone 0 ) --------------------
Viscous flow: Computing pressure using the ideal gas law
based on the free-stream temperature and a density computed
from the Reynolds number.
Force coefficients computed using free-stream values.

-- Models:
+------------------------------------------------------------------------------+
|          Viscosity Model|        Conductivity Model|              Fluid Model|
+------------------------------------------------------------------------------+
|               SUTHERLAND|          CONSTANT_PRANDTL|                IDEAL_GAS|
+------------------------------------------------------------------------------+
-- Fluid properties:
+------------------------------------------------------------------------------+
|                  Name|    Dim. value|    Ref. value|      Unit|Non-dim. value|
+------------------------------------------------------------------------------+
|        Ref. Viscosity|     1.716e-05|             1|   N.s/m^2|     1.716e-05|
|      Sutherland Temp.|        273.15|             1|         K|        273.15|
|     Sutherland Const.|         110.4|             1|         K|         110.4|
+------------------------------------------------------------------------------+
|        Prandtl (Lam.)|             -|             -|         -|          0.72|
|       Prandtl (Turb.)|             -|             -|         -|           0.9|
+------------------------------------------------------------------------------+
|          Gas Constant|       287.058|             1|  N.m/kg.K|       287.058|
|      Spec. Heat Ratio|             -|             -|         -|           1.4|
+------------------------------------------------------------------------------+
-- Initial and free-stream conditions:
+------------------------------------------------------------------------------+
|                  Name|    Dim. value|    Ref. value|      Unit|Non-dim. value|
+------------------------------------------------------------------------------+
|       Static Pressure|       5489.94|             1|        Pa|       5489.94|
|               Density|     0.0637495|             1|    kg/m^3|     0.0637495|
|           Temperature|           300|             1|         K|           300|
|          Total Energy|        230364|             1|   m^2/s^2|        230364|
|            Velocity-X|       148.814|             1|       m/s|       148.814|
|            Velocity-Y|      -89.4167|             1|       m/s|      -89.4167|
|    Velocity Magnitude|       173.612|             1|       m/s|       173.612|
+------------------------------------------------------------------------------+
|             Viscosity|   1.84592e-05|             1|   N.s/m^2|   1.84592e-05|
|          Conductivity|             -|             1|   W/m^2.K|             -|
|     Turb. Kin. Energy|       55.3843|             1|   m^2/s^2|       55.3843|
|     Spec. Dissipation|   1.91272e+06|             1|       1/s|   1.91272e+06|
+------------------------------------------------------------------------------+
|           Mach Number|             -|             -|         -|           0.5|
|       Reynolds Number|             -|             -|         -|        600000|
+------------------------------------------------------------------------------+
Initialize Jacobian structure (Navier-Stokes). MG level: 0.
Initialize Jacobian structure (SA model).

------------------- Numerics Preprocessing ( Zone 0 ) -------------------

----------------- Integration Preprocessing ( Zone 0 ) ------------------

------------------- Iteration Preprocessing ( Zone 0 ) ------------------
Euler/Navier-Stokes/RANS fluid iteration.

------------------------------ Begin Solver -----------------------------

Simulation Run using the Single-zone Driver
WARNING: SU2 was not compiled for an AVX-capable architecture. Performance could be better,
         see https://su2code.github.io/docs_v7/Build-SU2-Linux-MacOS/#compiler-optimizations
+--------------------------------------+
|  Inner_Iter|   Time(sec)|    rms[Rho]|
+--------------------------------------+
|           0|  6.5117e-02|   -2.371613|
|          10|  5.8103e-02|   -3.011845|
|          20|  6.2192e-02|   -2.841396|
|          30|  6.1049e-02|   -2.763335|
|          40|  6.0586e-02|   -2.757331|
|          50|  6.1594e-02|   -2.799658|
+-----------------------------------------------------------------------+
|        File Writing Summary       |              Filename             |
+-----------------------------------------------------------------------+
|SU2 binary restart                 |restart_flow_databladeVALIDATION_Blade_18.dat|
|                                   |                     (12296.1 MB/s)|
|Paraview                           |volume_flow_databladeVALIDATION_Blade_18.vtu|
|                                   |                      (1193.8 MB/s)|
|Paraview surface                   |surface_flowdatabladeVALIDATION_Blade_18.vtu|
|                                   |                     (105.172 MB/s)|
|SU2 ASCII restart                  |restart_flow_databladeVALIDATION_Blade_18.csv|
|                                   |                     (21.9094 MB/s)|
|CSV file                           |surface_flowdatabladeVALIDATION_Blade_18.csv|
|                                   |                      (21.036 MB/s)|
+-----------------------------------------------------------------------+
+--------------------------------------+
|  Inner_Iter|   Time(sec)|    rms[Rho]|
+--------------------------------------+
|          60|  9.8744e-02|   -2.853828|
|          70|  9.2668e-02|   -2.961294|
|          80|  8.9416e-02|   -2.912188|
|          90|  8.6850e-02|   -2.851508|
|         100|  8.3809e-02|   -2.959566|
+-----------------------------------------------------------------------+
|        File Writing Summary       |              Filename             |
+-----------------------------------------------------------------------+
|SU2 binary restart                 |restart_flow_databladeVALIDATION_Blade_18.dat|
|                                   |                     (12103.3 MB/s)|
|Paraview                           |volume_flow_databladeVALIDATION_Blade_18.vtu|
|                                   |                     (1058.44 MB/s)|
|Paraview surface                   |surface_flowdatabladeVALIDATION_Blade_18.vtu|
|                                   |                     (103.648 MB/s)|
|SU2 ASCII restart                  |restart_flow_databladeVALIDATION_Blade_18.csv|
|                                   |                      (22.552 MB/s)|
|CSV file                           |surface_flowdatabladeVALIDATION_Blade_18.csv|
|                                   |                     (22.1879 MB/s)|
+-----------------------------------------------------------------------+
+--------------------------------------+
|  Inner_Iter|   Time(sec)|    rms[Rho]|
+--------------------------------------+
|         110|  1.0089e-01|   -2.914193|
|         120|  9.7930e-02|   -2.879915|
|         130|  9.5184e-02|   -3.027057|
|         140|  9.2281e-02|   -3.100806|
|         150|  9.0202e-02|   -3.047498|
+-----------------------------------------------------------------------+
|        File Writing Summary       |              Filename             |
+-----------------------------------------------------------------------+
|SU2 binary restart                 |restart_flow_databladeVALIDATION_Blade_18.dat|
|                                   |                     (10342.5 MB/s)|
|Paraview                           |volume_flow_databladeVALIDATION_Blade_18.vtu|
|                                   |                     (1077.52 MB/s)|
|Paraview surface                   |surface_flowdatabladeVALIDATION_Blade_18.vtu|
|                                   |                     (107.618 MB/s)|
|SU2 ASCII restart                  |restart_flow_databladeVALIDATION_Blade_18.csv|
|                                   |                     (22.4899 MB/s)|
|CSV file                           |surface_flowdatabladeVALIDATION_Blade_18.csv|
|                                   |                     (20.3692 MB/s)|
+-----------------------------------------------------------------------+
+--------------------------------------+
|  Inner_Iter|   Time(sec)|    rms[Rho]|
+--------------------------------------+
|         160|  1.0197e-01|   -2.895049|
|         170|  9.9454e-02|   -3.007559|
|         180|  9.7128e-02|   -3.012333|
|         190|  9.5223e-02|   -2.989479|
|         200|  9.3727e-02|   -2.980841|
+-----------------------------------------------------------------------+
|        File Writing Summary       |              Filename             |
+-----------------------------------------------------------------------+
|SU2 binary restart                 |restart_flow_databladeVALIDATION_Blade_18.dat|
|                                   |                     (12043.1 MB/s)|
|Paraview                           |volume_flow_databladeVALIDATION_Blade_18.vtu|
|                                   |                     (1073.38 MB/s)|
|Paraview surface                   |surface_flowdatabladeVALIDATION_Blade_18.vtu|
|                                   |                     (113.822 MB/s)|
|SU2 ASCII restart                  |restart_flow_databladeVALIDATION_Blade_18.csv|
|                                   |                     (21.6782 MB/s)|
|CSV file                           |surface_flowdatabladeVALIDATION_Blade_18.csv|
|                                   |                     (20.4344 MB/s)|
+-----------------------------------------------------------------------+
+--------------------------------------+
|  Inner_Iter|   Time(sec)|    rms[Rho]|
+--------------------------------------+
|         210|  1.0245e-01|   -3.162439|
|         220|  1.0046e-01|   -3.221747|
|         230|  9.8741e-02|   -3.169276|
|         240|  9.7202e-02|   -3.105224|
|         250|  9.5576e-02|   -3.180808|
+-----------------------------------------------------------------------+
|        File Writing Summary       |              Filename             |
+-----------------------------------------------------------------------+
|SU2 binary restart                 |restart_flow_databladeVALIDATION_Blade_18.dat|
|                                   |                     (12199.9 MB/s)|
|Paraview                           |volume_flow_databladeVALIDATION_Blade_18.vtu|
|                                   |                     (1121.19 MB/s)|
|Paraview surface                   |surface_flowdatabladeVALIDATION_Blade_18.vtu|
|                                   |                     (99.2164 MB/s)|
|SU2 ASCII restart                  |restart_flow_databladeVALIDATION_Blade_18.csv|
|                                   |                      (22.005 MB/s)|
|CSV file                           |surface_flowdatabladeVALIDATION_Blade_18.csv|
|                                   |                     (20.5427 MB/s)|
+-----------------------------------------------------------------------+
+--------------------------------------+
|  Inner_Iter|   Time(sec)|    rms[Rho]|
+--------------------------------------+
|         260|  1.0268e-01|   -3.236118|
|         270|  1.0145e-01|   -3.110377|
|         280|  9.9950e-02|   -3.233122|
|         290|  9.8754e-02|   -3.100868|
|         300|  9.7618e-02|   -3.124527|
+-----------------------------------------------------------------------+
|        File Writing Summary       |              Filename             |
+-----------------------------------------------------------------------+
|SU2 binary restart                 |restart_flow_databladeVALIDATION_Blade_18.dat|
|                                   |                     (12533.9 MB/s)|
|Paraview                           |volume_flow_databladeVALIDATION_Blade_18.vtu|
|                                   |                     (1121.42 MB/s)|
|Paraview surface                   |surface_flowdatabladeVALIDATION_Blade_18.vtu|
|                                   |                     (133.094 MB/s)|
|SU2 ASCII restart                  |restart_flow_databladeVALIDATION_Blade_18.csv|
|                                   |                     (21.9179 MB/s)|
|CSV file                           |surface_flowdatabladeVALIDATION_Blade_18.csv|
|                                   |                     (21.2189 MB/s)|
+-----------------------------------------------------------------------+
+--------------------------------------+
|  Inner_Iter|   Time(sec)|    rms[Rho]|
+--------------------------------------+
|         310|  1.0327e-01|   -3.216437|
|         320|  1.0191e-01|   -3.210450|
|         330|  1.0095e-01|   -3.107296|
|         340|  9.9647e-02|   -3.253104|
|         350|  9.8529e-02|   -3.281119|
+-----------------------------------------------------------------------+
|        File Writing Summary       |              Filename             |
+-----------------------------------------------------------------------+
|SU2 binary restart                 |restart_flow_databladeVALIDATION_Blade_18.dat|
|                                   |                     (11753.7 MB/s)|
|Paraview                           |volume_flow_databladeVALIDATION_Blade_18.vtu|
|                                   |                     (1054.17 MB/s)|
|Paraview surface                   |surface_flowdatabladeVALIDATION_Blade_18.vtu|
|                                   |                     (97.1807 MB/s)|
|SU2 ASCII restart                  |restart_flow_databladeVALIDATION_Blade_18.csv|
|                                   |                     (21.2719 MB/s)|
|CSV file                           |surface_flowdatabladeVALIDATION_Blade_18.csv|
|                                   |                     (18.9772 MB/s)|
+-----------------------------------------------------------------------+
+--------------------------------------+
|  Inner_Iter|   Time(sec)|    rms[Rho]|
+--------------------------------------+
|         360|  1.0386e-01|   -2.983396|
|         370|  1.0202e-01|   -3.058023|
|         380|  1.0055e-01|   -3.120401|
|         390|  9.9725e-02|   -2.699182|
|         400|  9.8183e-02|   -2.651072|
+-----------------------------------------------------------------------+
|        File Writing Summary       |              Filename             |
+-----------------------------------------------------------------------+
|SU2 binary restart                 |restart_flow_databladeVALIDATION_Blade_18.dat|
|                                   |                     (13921.3 MB/s)|
|Paraview                           |volume_flow_databladeVALIDATION_Blade_18.vtu|
|                                   |                     (1168.99 MB/s)|
|Paraview surface                   |surface_flowdatabladeVALIDATION_Blade_18.vtu|
|                                   |                     (104.235 MB/s)|
|SU2 ASCII restart                  |restart_flow_databladeVALIDATION_Blade_18.csv|
|                                   |                     (22.0509 MB/s)|
|CSV file                           |surface_flowdatabladeVALIDATION_Blade_18.csv|
|                                   |                     (21.5906 MB/s)|
+-----------------------------------------------------------------------+
+--------------------------------------+
|  Inner_Iter|   Time(sec)|    rms[Rho]|
+--------------------------------------+
|         410|  1.0203e-01|   -2.810955|
|         420|  1.0097e-01|   -2.869301|
|         430|  1.0027e-01|   -2.765653|
|         440|  9.9546e-02|   -2.883750|
|         450|  9.8623e-02|   -2.966685|
+-----------------------------------------------------------------------+
|        File Writing Summary       |              Filename             |
+-----------------------------------------------------------------------+
|SU2 binary restart                 |restart_flow_databladeVALIDATION_Blade_18.dat|
|                                   |                     (11169.2 MB/s)|
|Paraview                           |volume_flow_databladeVALIDATION_Blade_18.vtu|
|                                   |                     (1146.76 MB/s)|
|Paraview surface                   |surface_flowdatabladeVALIDATION_Blade_18.vtu|
|                                   |                     (117.408 MB/s)|
|SU2 ASCII restart                  |restart_flow_databladeVALIDATION_Blade_18.csv|
|                                   |                     (21.8667 MB/s)|
|CSV file                           |surface_flowdatabladeVALIDATION_Blade_18.csv|
|                                   |                     (20.8339 MB/s)|
+-----------------------------------------------------------------------+
+--------------------------------------+
|  Inner_Iter|   Time(sec)|    rms[Rho]|
+--------------------------------------+
|         460|  1.0256e-01|   -2.809088|
|         470|  1.0178e-01|   -2.552365|
|         480|  1.0106e-01|   -2.499556|
|         490|  1.0023e-01|   -2.585536|
|         500|  9.9567e-02|   -2.354756|
+-----------------------------------------------------------------------+
|        File Writing Summary       |              Filename             |
+-----------------------------------------------------------------------+
|SU2 binary restart                 |restart_flow_databladeVALIDATION_Blade_18.dat|
|                                   |                       (12276 MB/s)|
|Paraview                           |volume_flow_databladeVALIDATION_Blade_18.vtu|
|                                   |                     (1022.95 MB/s)|
|Paraview surface                   |surface_flowdatabladeVALIDATION_Blade_18.vtu|
|                                   |                     (102.572 MB/s)|
|SU2 ASCII restart                  |restart_flow_databladeVALIDATION_Blade_18.csv|
|                                   |                     (21.8036 MB/s)|
|CSV file                           |surface_flowdatabladeVALIDATION_Blade_18.csv|
|                                   |                     (20.7133 MB/s)|
+-----------------------------------------------------------------------+
+--------------------------------------+
|  Inner_Iter|   Time(sec)|    rms[Rho]|
+--------------------------------------+
|         510|  1.0260e-01|   -2.398677|
|         520|  1.0147e-01|   -2.377592|
|         530|  1.0083e-01|   -2.033053|
|         540|  1.0016e-01|   -2.126014|
|         550|  9.9747e-02|   -2.129359|
+-----------------------------------------------------------------------+
|        File Writing Summary       |              Filename             |
+-----------------------------------------------------------------------+
|SU2 binary restart                 |restart_flow_databladeVALIDATION_Blade_18.dat|
|                                   |                     (11707.4 MB/s)|
|Paraview                           |volume_flow_databladeVALIDATION_Blade_18.vtu|
|                                   |                     (1114.79 MB/s)|
|Paraview surface                   |surface_flowdatabladeVALIDATION_Blade_18.vtu|
|                                   |                     (96.5348 MB/s)|
|SU2 ASCII restart                  |restart_flow_databladeVALIDATION_Blade_18.csv|
|                                   |                     (21.8842 MB/s)|
|CSV file                           |surface_flowdatabladeVALIDATION_Blade_18.csv|
|                                   |                      (20.653 MB/s)|
+-----------------------------------------------------------------------+
+--------------------------------------+
|  Inner_Iter|   Time(sec)|    rms[Rho]|
+--------------------------------------+
|         560|  1.0300e-01|   -2.206830|
|         570|  1.0214e-01|   -2.159899|
|         580|  1.0106e-01|   -2.177255|
|         590|  1.0020e-01|   -2.126356|
|         600|  9.9725e-02|   -1.888397|
+-----------------------------------------------------------------------+
|        File Writing Summary       |              Filename             |
+-----------------------------------------------------------------------+
|SU2 binary restart                 |restart_flow_databladeVALIDATION_Blade_18.dat|
|                                   |                     (12549.9 MB/s)|
|Paraview                           |volume_flow_databladeVALIDATION_Blade_18.vtu|
|                                   |                     (1036.97 MB/s)|
|Paraview surface                   |surface_flowdatabladeVALIDATION_Blade_18.vtu|
|                                   |                     (77.3331 MB/s)|
|SU2 ASCII restart                  |restart_flow_databladeVALIDATION_Blade_18.csv|
|                                   |                     (22.4598 MB/s)|
|CSV file                           |surface_flowdatabladeVALIDATION_Blade_18.csv|
|                                   |                     (20.1585 MB/s)|
+-----------------------------------------------------------------------+
+--------------------------------------+
|  Inner_Iter|   Time(sec)|    rms[Rho]|
+--------------------------------------+
|         610|  1.0264e-01|   -2.031304|
|         620|  1.0197e-01|   -2.027758|
|         630|  1.0125e-01|   -1.733051|
|         640|  1.0020e-01|   -1.778455|
|         650|  9.9274e-02|   -1.702662|
+-----------------------------------------------------------------------+
|        File Writing Summary       |              Filename             |
+-----------------------------------------------------------------------+
|SU2 binary restart                 |restart_flow_databladeVALIDATION_Blade_18.dat|
|                                   |                     (12619.3 MB/s)|
|Paraview                           |volume_flow_databladeVALIDATION_Blade_18.vtu|
|                                   |                     (1042.89 MB/s)|
|Paraview surface                   |surface_flowdatabladeVALIDATION_Blade_18.vtu|
|                                   |                     (137.441 MB/s)|
|SU2 ASCII restart                  |restart_flow_databladeVALIDATION_Blade_18.csv|
|                                   |                     (21.7851 MB/s)|
|CSV file                           |surface_flowdatabladeVALIDATION_Blade_18.csv|
|                                   |                     (19.8672 MB/s)|
+-----------------------------------------------------------------------+
+--------------------------------------+
|  Inner_Iter|   Time(sec)|    rms[Rho]|
+--------------------------------------+
|         660|  1.0208e-01|   -1.520467|
|         670|  1.0129e-01|   -1.636388|
|         680|  1.0068e-01|   -1.709603|
|         690|  1.0016e-01|   -1.756292|
|         700|  9.9529e-02|   -1.807388|
+-----------------------------------------------------------------------+
|        File Writing Summary       |              Filename             |
+-----------------------------------------------------------------------+
|SU2 binary restart                 |restart_flow_databladeVALIDATION_Blade_18.dat|
|                                   |                     (9937.76 MB/s)|
|Paraview                           |volume_flow_databladeVALIDATION_Blade_18.vtu|
|                                   |                     (1000.87 MB/s)|
|Paraview surface                   |surface_flowdatabladeVALIDATION_Blade_18.vtu|
|                                   |                     (83.4208 MB/s)|
|SU2 ASCII restart                  |restart_flow_databladeVALIDATION_Blade_18.csv|
|                                   |                     (21.9766 MB/s)|
|CSV file                           |surface_flowdatabladeVALIDATION_Blade_18.csv|
|                                   |                     (20.9917 MB/s)|
+-----------------------------------------------------------------------+
+--------------------------------------+
|  Inner_Iter|   Time(sec)|    rms[Rho]|
+--------------------------------------+
|         710|  1.0194e-01|   -1.880080|
|         720|  1.0129e-01|   -1.958472|
|         730|  1.0068e-01|   -2.009353|
|         740|  1.0005e-01|   -2.018878|
|         750|  9.9469e-02|   -2.021528|
+-----------------------------------------------------------------------+
|        File Writing Summary       |              Filename             |
+-----------------------------------------------------------------------+
|SU2 binary restart                 |restart_flow_databladeVALIDATION_Blade_18.dat|
|                                   |                     (12536.9 MB/s)|
|Paraview                           |volume_flow_databladeVALIDATION_Blade_18.vtu|
|                                   |                     (1054.08 MB/s)|
|Paraview surface                   |surface_flowdatabladeVALIDATION_Blade_18.vtu|
|                                   |                     (104.702 MB/s)|
|SU2 ASCII restart                  |restart_flow_databladeVALIDATION_Blade_18.csv|
|                                   |                      (22.064 MB/s)|
|CSV file                           |surface_flowdatabladeVALIDATION_Blade_18.csv|
|                                   |                     (21.7303 MB/s)|
+-----------------------------------------------------------------------+
+--------------------------------------+
|  Inner_Iter|   Time(sec)|    rms[Rho]|
+--------------------------------------+
|         760|  1.0181e-01|   -2.031782|
|         770|  1.0128e-01|   -2.044408|
|         780|  1.0059e-01|   -2.057218|
|         790|  1.0006e-01|   -2.085054|
|         800|  9.9601e-02|   -2.092658|
+-----------------------------------------------------------------------+
|        File Writing Summary       |              Filename             |
+-----------------------------------------------------------------------+
|SU2 binary restart                 |restart_flow_databladeVALIDATION_Blade_18.dat|
|                                   |                       (12354 MB/s)|
|Paraview                           |volume_flow_databladeVALIDATION_Blade_18.vtu|
|                                   |                     (1055.82 MB/s)|
|Paraview surface                   |surface_flowdatabladeVALIDATION_Blade_18.vtu|
|                                   |                     (100.683 MB/s)|
|SU2 ASCII restart                  |restart_flow_databladeVALIDATION_Blade_18.csv|
|                                   |                     (21.6581 MB/s)|
|CSV file                           |surface_flowdatabladeVALIDATION_Blade_18.csv|
|                                   |                     (22.0456 MB/s)|
+-----------------------------------------------------------------------+
+--------------------------------------+
|  Inner_Iter|   Time(sec)|    rms[Rho]|
+--------------------------------------+
|         810|  1.0180e-01|   -2.146128|
|         820|  1.0119e-01|   -2.200578|
|         830|  1.0065e-01|   -2.244492|
|         840|  1.0020e-01|   -2.283946|
|         850|  9.9638e-02|   -2.309271|
+-----------------------------------------------------------------------+
|        File Writing Summary       |              Filename             |
+-----------------------------------------------------------------------+
|SU2 binary restart                 |restart_flow_databladeVALIDATION_Blade_18.dat|
|                                   |                     (12673.2 MB/s)|
|Paraview                           |volume_flow_databladeVALIDATION_Blade_18.vtu|
|                                   |                     (1122.41 MB/s)|
|Paraview surface                   |surface_flowdatabladeVALIDATION_Blade_18.vtu|
|                                   |                     (102.542 MB/s)|
|SU2 ASCII restart                  |restart_flow_databladeVALIDATION_Blade_18.csv|
|                                   |                     (21.8195 MB/s)|
|CSV file                           |surface_flowdatabladeVALIDATION_Blade_18.csv|
|                                   |                     (20.8762 MB/s)|
+-----------------------------------------------------------------------+
+--------------------------------------+
|  Inner_Iter|   Time(sec)|    rms[Rho]|
+--------------------------------------+
|         860|  1.0170e-01|   -2.324461|
|         870|  1.0132e-01|   -2.318888|
|         880|  1.0084e-01|   -2.352689|
|         890|  1.0039e-01|   -2.367505|
|         900|  9.9945e-02|   -2.356878|
+-----------------------------------------------------------------------+
|        File Writing Summary       |              Filename             |
+-----------------------------------------------------------------------+
|SU2 binary restart                 |restart_flow_databladeVALIDATION_Blade_18.dat|
|                                   |                     (12484.3 MB/s)|
|Paraview                           |volume_flow_databladeVALIDATION_Blade_18.vtu|
|                                   |                     (1044.13 MB/s)|
|Paraview surface                   |surface_flowdatabladeVALIDATION_Blade_18.vtu|
|                                   |                      (87.901 MB/s)|
|SU2 ASCII restart                  |restart_flow_databladeVALIDATION_Blade_18.csv|
|                                   |                     (21.7307 MB/s)|
|CSV file                           |surface_flowdatabladeVALIDATION_Blade_18.csv|
|                                   |                     (21.9611 MB/s)|
+-----------------------------------------------------------------------+
+--------------------------------------+
|  Inner_Iter|   Time(sec)|    rms[Rho]|
+--------------------------------------+
|         910|  1.0195e-01|   -2.369245|
|         920|  1.0145e-01|   -2.408547|
|         930|  1.0092e-01|   -2.426461|
|         940|  1.0044e-01|   -2.434383|
|         950|  1.0005e-01|   -2.443544|
+-----------------------------------------------------------------------+
|        File Writing Summary       |              Filename             |
+-----------------------------------------------------------------------+
|SU2 binary restart                 |restart_flow_databladeVALIDATION_Blade_18.dat|
|                                   |                     (9858.13 MB/s)|
|Paraview                           |volume_flow_databladeVALIDATION_Blade_18.vtu|
|                                   |                     (1011.72 MB/s)|
|Paraview surface                   |surface_flowdatabladeVALIDATION_Blade_18.vtu|
|                                   |                     (103.475 MB/s)|
|SU2 ASCII restart                  |restart_flow_databladeVALIDATION_Blade_18.csv|
|                                   |                     (21.4867 MB/s)|
|CSV file                           |surface_flowdatabladeVALIDATION_Blade_18.csv|
|                                   |                     (20.3971 MB/s)|
+-----------------------------------------------------------------------+
+--------------------------------------+
|  Inner_Iter|   Time(sec)|    rms[Rho]|
+--------------------------------------+
|         960|  1.0188e-01|   -2.448194|
|         970|  1.0144e-01|   -2.470340|
|         980|  1.0101e-01|   -2.497716|
|         990|  1.0060e-01|   -2.510463|
|        1000|  1.0012e-01|   -2.513532|
+-----------------------------------------------------------------------+
|        File Writing Summary       |              Filename             |
+-----------------------------------------------------------------------+
|SU2 binary restart                 |restart_flow_databladeVALIDATION_Blade_18.dat|
|                                   |                       (11513 MB/s)|
|Paraview                           |volume_flow_databladeVALIDATION_Blade_18.vtu|
|                                   |                     (1075.46 MB/s)|
|Paraview surface                   |surface_flowdatabladeVALIDATION_Blade_18.vtu|
|                                   |                     (85.1022 MB/s)|
|SU2 ASCII restart                  |restart_flow_databladeVALIDATION_Blade_18.csv|
|                                   |                     (21.9087 MB/s)|
|CSV file                           |surface_flowdatabladeVALIDATION_Blade_18.csv|
|                                   |                     (22.5611 MB/s)|
+-----------------------------------------------------------------------+
+--------------------------------------+
|  Inner_Iter|   Time(sec)|    rms[Rho]|
+--------------------------------------+
|        1010|  1.0187e-01|   -2.527035|
|        1020|  1.0148e-01|   -2.546878|
|        1030|  1.0106e-01|   -2.562600|
|        1040|  1.0060e-01|   -2.578419|
|        1050|  1.0021e-01|   -2.597021|
+-----------------------------------------------------------------------+
|        File Writing Summary       |              Filename             |
+-----------------------------------------------------------------------+
|SU2 binary restart                 |restart_flow_databladeVALIDATION_Blade_18.dat|
|                                   |                       (11723 MB/s)|
|Paraview                           |volume_flow_databladeVALIDATION_Blade_18.vtu|
|                                   |                     (1115.07 MB/s)|
|Paraview surface                   |surface_flowdatabladeVALIDATION_Blade_18.vtu|
|                                   |                     (97.6887 MB/s)|
|SU2 ASCII restart                  |restart_flow_databladeVALIDATION_Blade_18.csv|
|                                   |                     (21.8377 MB/s)|
|CSV file                           |surface_flowdatabladeVALIDATION_Blade_18.csv|
|                                   |                     (20.0923 MB/s)|
+-----------------------------------------------------------------------+
+--------------------------------------+
|  Inner_Iter|   Time(sec)|    rms[Rho]|
+--------------------------------------+
|        1060|  1.0198e-01|   -2.601254|
|        1070|  1.0156e-01|   -2.594651|
|        1080|  1.0118e-01|   -2.579247|
|        1090|  1.0079e-01|   -2.570450|
|        1100|  1.0038e-01|   -2.554908|
+-----------------------------------------------------------------------+
|        File Writing Summary       |              Filename             |
+-----------------------------------------------------------------------+
|SU2 binary restart                 |restart_flow_databladeVALIDATION_Blade_18.dat|
|                                   |                       (12665 MB/s)|
|Paraview                           |volume_flow_databladeVALIDATION_Blade_18.vtu|
|                                   |                      (1145.6 MB/s)|
|Paraview surface                   |surface_flowdatabladeVALIDATION_Blade_18.vtu|
|                                   |                      (101.78 MB/s)|
|SU2 ASCII restart                  |restart_flow_databladeVALIDATION_Blade_18.csv|
|                                   |                     (21.9168 MB/s)|
|CSV file                           |surface_flowdatabladeVALIDATION_Blade_18.csv|
|                                   |                     (21.6855 MB/s)|
+-----------------------------------------------------------------------+
+--------------------------------------+
|  Inner_Iter|   Time(sec)|    rms[Rho]|
+--------------------------------------+
|        1110|  1.0198e-01|   -2.542091|
|        1120|  1.0161e-01|   -2.520745|
|        1130|  1.0123e-01|   -2.515198|
|        1140|  1.0075e-01|   -2.524868|
|        1150|  1.0034e-01|   -2.536090|
+-----------------------------------------------------------------------+
|        File Writing Summary       |              Filename             |
+-----------------------------------------------------------------------+
|SU2 binary restart                 |restart_flow_databladeVALIDATION_Blade_18.dat|
|                                   |                     (10615.1 MB/s)|
|Paraview                           |volume_flow_databladeVALIDATION_Blade_18.vtu|
|                                   |                     (1017.74 MB/s)|
|Paraview surface                   |surface_flowdatabladeVALIDATION_Blade_18.vtu|
|                                   |                     (95.0655 MB/s)|
|SU2 ASCII restart                  |restart_flow_databladeVALIDATION_Blade_18.csv|
|                                   |                     (21.6596 MB/s)|
|CSV file                           |surface_flowdatabladeVALIDATION_Blade_18.csv|
|                                   |                     (22.2045 MB/s)|
+-----------------------------------------------------------------------+
+--------------------------------------+
|  Inner_Iter|   Time(sec)|    rms[Rho]|
+--------------------------------------+
|        1160|  1.0187e-01|   -2.551696|
|        1170|  1.0147e-01|   -2.589785|
|        1180|  1.0106e-01|   -2.643606|
|        1190|  1.0072e-01|   -2.683323|
|        1200|  1.0038e-01|   -2.714986|
+-----------------------------------------------------------------------+
|        File Writing Summary       |              Filename             |
+-----------------------------------------------------------------------+
|SU2 binary restart                 |restart_flow_databladeVALIDATION_Blade_18.dat|
|                                   |                     (13565.1 MB/s)|
|Paraview                           |volume_flow_databladeVALIDATION_Blade_18.vtu|
|                                   |                     (1047.65 MB/s)|
|Paraview surface                   |surface_flowdatabladeVALIDATION_Blade_18.vtu|
|                                   |                      (108.28 MB/s)|
|SU2 ASCII restart                  |restart_flow_databladeVALIDATION_Blade_18.csv|
|                                   |                     (21.8096 MB/s)|
|CSV file                           |surface_flowdatabladeVALIDATION_Blade_18.csv|
|                                   |                     (21.0452 MB/s)|
+-----------------------------------------------------------------------+
+--------------------------------------+
|  Inner_Iter|   Time(sec)|    rms[Rho]|
+--------------------------------------+
|        1210|  1.0180e-01|   -2.747313|
|        1220|  1.0138e-01|   -2.764416|
|        1230|  1.0102e-01|   -2.771136|
|        1240|  1.0071e-01|   -2.791875|
|        1250|  1.0031e-01|   -2.817792|
+-----------------------------------------------------------------------+
|        File Writing Summary       |              Filename             |
+-----------------------------------------------------------------------+
|SU2 binary restart                 |restart_flow_databladeVALIDATION_Blade_18.dat|
|                                   |                       (12068 MB/s)|
|Paraview                           |volume_flow_databladeVALIDATION_Blade_18.vtu|
|                                   |                     (1083.92 MB/s)|
|Paraview surface                   |surface_flowdatabladeVALIDATION_Blade_18.vtu|
|                                   |                     (136.168 MB/s)|
|SU2 ASCII restart                  |restart_flow_databladeVALIDATION_Blade_18.csv|
|                                   |                      (21.761 MB/s)|
|CSV file                           |surface_flowdatabladeVALIDATION_Blade_18.csv|
|                                   |                     (20.4969 MB/s)|
+-----------------------------------------------------------------------+
+--------------------------------------+
|  Inner_Iter|   Time(sec)|    rms[Rho]|
+--------------------------------------+
|        1260|  1.0174e-01|   -2.833371|
|        1270|  1.0141e-01|   -2.855935|
|        1280|  1.0103e-01|   -2.883668|
|        1290|  1.0066e-01|   -2.909221|
|        1300|  1.0033e-01|   -2.934080|
+-----------------------------------------------------------------------+
|        File Writing Summary       |              Filename             |
+-----------------------------------------------------------------------+
|SU2 binary restart                 |restart_flow_databladeVALIDATION_Blade_18.dat|
|                                   |                     (12642.6 MB/s)|
|Paraview                           |volume_flow_databladeVALIDATION_Blade_18.vtu|
|                                   |                     (968.162 MB/s)|
|Paraview surface                   |surface_flowdatabladeVALIDATION_Blade_18.vtu|
|                                   |                     (104.141 MB/s)|
|SU2 ASCII restart                  |restart_flow_databladeVALIDATION_Blade_18.csv|
|                                   |                     (21.9677 MB/s)|
|CSV file                           |surface_flowdatabladeVALIDATION_Blade_18.csv|
|                                   |                     (20.8733 MB/s)|
+-----------------------------------------------------------------------+
+--------------------------------------+
|  Inner_Iter|   Time(sec)|    rms[Rho]|
+--------------------------------------+
|        1310|  1.0168e-01|   -2.954987|
|        1320|  1.0128e-01|   -2.985510|
|        1330|  1.0095e-01|   -2.993046|
|        1340|  1.0063e-01|   -3.021042|
|        1350|  1.0028e-01|   -3.030801|
+-----------------------------------------------------------------------+
|        File Writing Summary       |              Filename             |
+-----------------------------------------------------------------------+
|SU2 binary restart                 |restart_flow_databladeVALIDATION_Blade_18.dat|
|                                   |                       (11803 MB/s)|
|Paraview                           |volume_flow_databladeVALIDATION_Blade_18.vtu|
|                                   |                     (1025.33 MB/s)|
|Paraview surface                   |surface_flowdatabladeVALIDATION_Blade_18.vtu|
|                                   |                      (104.77 MB/s)|
|SU2 ASCII restart                  |restart_flow_databladeVALIDATION_Blade_18.csv|
|                                   |                     (21.9035 MB/s)|
|CSV file                           |surface_flowdatabladeVALIDATION_Blade_18.csv|
|                                   |                     (21.6016 MB/s)|
+-----------------------------------------------------------------------+
+--------------------------------------+
|  Inner_Iter|   Time(sec)|    rms[Rho]|
+--------------------------------------+
|        1360|  1.0153e-01|   -3.041007|
|        1370|  1.0119e-01|   -3.066851|
|        1380|  1.0089e-01|   -3.091736|
|        1390|  1.0053e-01|   -3.103388|
|        1400|  1.0016e-01|   -3.114019|
+-----------------------------------------------------------------------+
|        File Writing Summary       |              Filename             |
+-----------------------------------------------------------------------+
|SU2 binary restart                 |restart_flow_databladeVALIDATION_Blade_18.dat|
|                                   |                     (11360.2 MB/s)|
|Paraview                           |volume_flow_databladeVALIDATION_Blade_18.vtu|
|                                   |                     (971.196 MB/s)|
|Paraview surface                   |surface_flowdatabladeVALIDATION_Blade_18.vtu|
|                                   |                     (135.541 MB/s)|
|SU2 ASCII restart                  |restart_flow_databladeVALIDATION_Blade_18.csv|
|                                   |                     (21.5834 MB/s)|
|CSV file                           |surface_flowdatabladeVALIDATION_Blade_18.csv|
|                                   |                     (19.9187 MB/s)|
+-----------------------------------------------------------------------+
+--------------------------------------+
|  Inner_Iter|   Time(sec)|    rms[Rho]|
+--------------------------------------+
|        1410|  1.0144e-01|   -3.121657|
|        1420|  1.0115e-01|   -3.130560|
|        1430|  1.0077e-01|   -3.137433|
|        1440|  1.0045e-01|   -3.140581|
|        1450|  1.0018e-01|   -3.141074|
+-----------------------------------------------------------------------+
|        File Writing Summary       |              Filename             |
+-----------------------------------------------------------------------+
|SU2 binary restart                 |restart_flow_databladeVALIDATION_Blade_18.dat|
|                                   |                     (12485.2 MB/s)|
|Paraview                           |volume_flow_databladeVALIDATION_Blade_18.vtu|
|                                   |                     (941.124 MB/s)|
|Paraview surface                   |surface_flowdatabladeVALIDATION_Blade_18.vtu|
|                                   |                     (39.9215 MB/s)|
|SU2 ASCII restart                  |restart_flow_databladeVALIDATION_Blade_18.csv|
|                                   |                     (21.9558 MB/s)|
|CSV file                           |surface_flowdatabladeVALIDATION_Blade_18.csv|
|                                   |                      (19.961 MB/s)|
+-----------------------------------------------------------------------+
+--------------------------------------+
|  Inner_Iter|   Time(sec)|    rms[Rho]|
+--------------------------------------+
|        1460|  1.0136e-01|   -3.159601|
|        1470|  1.0104e-01|   -3.189151|
|        1480|  1.0076e-01|   -3.240565|
|        1490|  1.0049e-01|   -3.277418|
|        1500|  1.0017e-01|   -3.263028|
+-----------------------------------------------------------------------+
|        File Writing Summary       |              Filename             |
+-----------------------------------------------------------------------+
|SU2 binary restart                 |restart_flow_databladeVALIDATION_Blade_18.dat|
|                                   |                     (11721.3 MB/s)|
|Paraview                           |volume_flow_databladeVALIDATION_Blade_18.vtu|
|                                   |                     (1048.97 MB/s)|
|Paraview surface                   |surface_flowdatabladeVALIDATION_Blade_18.vtu|
|                                   |                     (99.0127 MB/s)|
|SU2 ASCII restart                  |restart_flow_databladeVALIDATION_Blade_18.csv|
|                                   |                     (22.1322 MB/s)|
|CSV file                           |surface_flowdatabladeVALIDATION_Blade_18.csv|
|                                   |                     (19.3942 MB/s)|
+-----------------------------------------------------------------------+
+--------------------------------------+
|  Inner_Iter|   Time(sec)|    rms[Rho]|
+--------------------------------------+
|        1510|  1.0140e-01|   -3.113304|
|        1520|  1.0112e-01|   -3.141937|
|        1530|  1.0084e-01|   -3.144535|
|        1540|  1.0060e-01|   -3.171608|
|        1550|  1.0038e-01|   -3.186174|
+-----------------------------------------------------------------------+
|        File Writing Summary       |              Filename             |
+-----------------------------------------------------------------------+
|SU2 binary restart                 |restart_flow_databladeVALIDATION_Blade_18.dat|
|                                   |                       (12255 MB/s)|
|Paraview                           |volume_flow_databladeVALIDATION_Blade_18.vtu|
|                                   |                     (1134.39 MB/s)|
|Paraview surface                   |surface_flowdatabladeVALIDATION_Blade_18.vtu|
|                                   |                      (100.52 MB/s)|
|SU2 ASCII restart                  |restart_flow_databladeVALIDATION_Blade_18.csv|
|                                   |                     (21.1307 MB/s)|
|CSV file                           |surface_flowdatabladeVALIDATION_Blade_18.csv|
|                                   |                      (21.546 MB/s)|
+-----------------------------------------------------------------------+
+--------------------------------------+
|  Inner_Iter|   Time(sec)|    rms[Rho]|
+--------------------------------------+
|        1560|  1.0155e-01|   -3.186288|
|        1570|  1.0130e-01|   -3.147902|
|        1580|  1.0106e-01|   -3.118148|
|        1590|  1.0084e-01|   -3.106986|
|        1600|  1.0055e-01|   -3.104580|
+-----------------------------------------------------------------------+
|        File Writing Summary       |              Filename             |
+-----------------------------------------------------------------------+
|SU2 binary restart                 |restart_flow_databladeVALIDATION_Blade_18.dat|
|                                   |                     (11377.4 MB/s)|
|Paraview                           |volume_flow_databladeVALIDATION_Blade_18.vtu|
|                                   |                      (1053.9 MB/s)|
|Paraview surface                   |surface_flowdatabladeVALIDATION_Blade_18.vtu|
|                                   |                     (106.637 MB/s)|
|SU2 ASCII restart                  |restart_flow_databladeVALIDATION_Blade_18.csv|
|                                   |                      (21.328 MB/s)|
|CSV file                           |surface_flowdatabladeVALIDATION_Blade_18.csv|
|                                   |                     (18.5254 MB/s)|
+-----------------------------------------------------------------------+
+--------------------------------------+
|  Inner_Iter|   Time(sec)|    rms[Rho]|
+--------------------------------------+
|        1610|  1.0166e-01|   -3.093712|
|        1620|  1.0141e-01|   -3.076269|
|        1630|  1.0119e-01|   -3.083014|
|        1640|  1.0089e-01|   -3.099777|
|        1650|  1.0063e-01|   -3.113352|
+-----------------------------------------------------------------------+
|        File Writing Summary       |              Filename             |
+-----------------------------------------------------------------------+
|SU2 binary restart                 |restart_flow_databladeVALIDATION_Blade_18.dat|
|                                   |                       (12578 MB/s)|
|Paraview                           |volume_flow_databladeVALIDATION_Blade_18.vtu|
|                                   |                      (1133.2 MB/s)|
|Paraview surface                   |surface_flowdatabladeVALIDATION_Blade_18.vtu|
|                                   |                      (107.98 MB/s)|
|SU2 ASCII restart                  |restart_flow_databladeVALIDATION_Blade_18.csv|
|                                   |                     (21.3915 MB/s)|
|CSV file                           |surface_flowdatabladeVALIDATION_Blade_18.csv|
|                                   |                     (22.2117 MB/s)|
+-----------------------------------------------------------------------+
+--------------------------------------+
|  Inner_Iter|   Time(sec)|    rms[Rho]|
+--------------------------------------+
|        1660|  1.0176e-01|   -3.127776|
|        1670|  1.0149e-01|   -3.147996|
|        1680|  1.0131e-01|   -3.193374|
|        1690|  1.0109e-01|   -3.247992|
|        1700|  1.0084e-01|   -3.287675|
+-----------------------------------------------------------------------+
|        File Writing Summary       |              Filename             |
+-----------------------------------------------------------------------+
|SU2 binary restart                 |restart_flow_databladeVALIDATION_Blade_18.dat|
|                                   |                     (12857.3 MB/s)|
|Paraview                           |volume_flow_databladeVALIDATION_Blade_18.vtu|
|                                   |                     (990.154 MB/s)|
|Paraview surface                   |surface_flowdatabladeVALIDATION_Blade_18.vtu|
|                                   |                     (100.503 MB/s)|
|SU2 ASCII restart                  |restart_flow_databladeVALIDATION_Blade_18.csv|
|                                   |                     (21.7456 MB/s)|
|CSV file                           |surface_flowdatabladeVALIDATION_Blade_18.csv|
|                                   |                     (19.4718 MB/s)|
+-----------------------------------------------------------------------+
+--------------------------------------+
|  Inner_Iter|   Time(sec)|    rms[Rho]|
+--------------------------------------+
|        1710|  1.0193e-01|   -3.318215|
|        1720|  1.0171e-01|   -3.331760|
|        1730|  1.0143e-01|   -3.329298|
|        1740|  1.0120e-01|   -3.302366|
|        1750|  1.0102e-01|   -3.258481|
+-----------------------------------------------------------------------+
|        File Writing Summary       |              Filename             |
+-----------------------------------------------------------------------+
|SU2 binary restart                 |restart_flow_databladeVALIDATION_Blade_18.dat|
|                                   |                       (11178 MB/s)|
|Paraview                           |volume_flow_databladeVALIDATION_Blade_18.vtu|
|                                   |                     (1104.02 MB/s)|
|Paraview surface                   |surface_flowdatabladeVALIDATION_Blade_18.vtu|
|                                   |                     (102.743 MB/s)|
|SU2 ASCII restart                  |restart_flow_databladeVALIDATION_Blade_18.csv|
|                                   |                     (22.0272 MB/s)|
|CSV file                           |surface_flowdatabladeVALIDATION_Blade_18.csv|
|                                   |                      (21.432 MB/s)|
+-----------------------------------------------------------------------+
+--------------------------------------+
|  Inner_Iter|   Time(sec)|    rms[Rho]|
+--------------------------------------+
|        1760|  1.0201e-01|   -3.276119|
|        1770|  1.0175e-01|   -3.283154|
|        1780|  1.0152e-01|   -3.287326|
|        1790|  1.0133e-01|   -3.294240|
|        1800|  1.0108e-01|   -3.367696|
+-----------------------------------------------------------------------+
|        File Writing Summary       |              Filename             |
+-----------------------------------------------------------------------+
|SU2 binary restart                 |restart_flow_databladeVALIDATION_Blade_18.dat|
|                                   |                     (12330.8 MB/s)|
|Paraview                           |volume_flow_databladeVALIDATION_Blade_18.vtu|
|                                   |                      (1121.6 MB/s)|
|Paraview surface                   |surface_flowdatabladeVALIDATION_Blade_18.vtu|
|                                   |                     (104.733 MB/s)|
|SU2 ASCII restart                  |restart_flow_databladeVALIDATION_Blade_18.csv|
|                                   |                     (21.4592 MB/s)|
|CSV file                           |surface_flowdatabladeVALIDATION_Blade_18.csv|
|                                   |                     (21.4705 MB/s)|
+-----------------------------------------------------------------------+
+--------------------------------------+
|  Inner_Iter|   Time(sec)|    rms[Rho]|
+--------------------------------------+
|        1810|  1.0213e-01|   -3.384664|
|        1820|  1.0192e-01|   -3.420365|
|        1830|  1.0167e-01|   -3.448374|
|        1840|  1.0147e-01|   -3.393712|
|        1850|  1.0129e-01|   -3.396036|
+-----------------------------------------------------------------------+
|        File Writing Summary       |              Filename             |
+-----------------------------------------------------------------------+
|SU2 binary restart                 |restart_flow_databladeVALIDATION_Blade_18.dat|
|                                   |                     (9858.75 MB/s)|
|Paraview                           |volume_flow_databladeVALIDATION_Blade_18.vtu|
|                                   |                     (1101.62 MB/s)|
|Paraview surface                   |surface_flowdatabladeVALIDATION_Blade_18.vtu|
|                                   |                     (99.1593 MB/s)|
|SU2 ASCII restart                  |restart_flow_databladeVALIDATION_Blade_18.csv|
|                                   |                     (21.8401 MB/s)|
|CSV file                           |surface_flowdatabladeVALIDATION_Blade_18.csv|
|                                   |                      (21.732 MB/s)|
+-----------------------------------------------------------------------+
+--------------------------------------+
|  Inner_Iter|   Time(sec)|    rms[Rho]|
+--------------------------------------+
|        1860|  1.0224e-01|   -3.412514|
|        1870|  1.0201e-01|   -3.396352|
|        1880|  1.0183e-01|   -3.353193|
|        1890|  1.0163e-01|   -3.357278|
|        1900|  1.0140e-01|   -3.339095|
+-----------------------------------------------------------------------+
|        File Writing Summary       |              Filename             |
+-----------------------------------------------------------------------+
|SU2 binary restart                 |restart_flow_databladeVALIDATION_Blade_18.dat|
|                                   |                       (10573 MB/s)|
|Paraview                           |volume_flow_databladeVALIDATION_Blade_18.vtu|
|                                   |                     (1135.78 MB/s)|
|Paraview surface                   |surface_flowdatabladeVALIDATION_Blade_18.vtu|
|                                   |                     (97.4203 MB/s)|
|SU2 ASCII restart                  |restart_flow_databladeVALIDATION_Blade_18.csv|
|                                   |                     (21.7451 MB/s)|
|CSV file                           |surface_flowdatabladeVALIDATION_Blade_18.csv|
|                                   |                     (21.0178 MB/s)|
+-----------------------------------------------------------------------+
+--------------------------------------+
|  Inner_Iter|   Time(sec)|    rms[Rho]|
+--------------------------------------+
|        1910|  1.0236e-01|   -3.305846|
|        1920|  1.0218e-01|   -3.292901|
|        1930|  1.0193e-01|   -3.288833|
|        1940|  1.0172e-01|   -3.271339|
|        1950|  1.0155e-01|   -3.207525|
+-----------------------------------------------------------------------+
|        File Writing Summary       |              Filename             |
+-----------------------------------------------------------------------+
|SU2 binary restart                 |restart_flow_databladeVALIDATION_Blade_18.dat|
|                                   |                     (12348.2 MB/s)|
|Paraview                           |volume_flow_databladeVALIDATION_Blade_18.vtu|
|                                   |                     (1068.87 MB/s)|
|Paraview surface                   |surface_flowdatabladeVALIDATION_Blade_18.vtu|
|                                   |                     (99.3391 MB/s)|
|SU2 ASCII restart                  |restart_flow_databladeVALIDATION_Blade_18.csv|
|                                   |                     (21.3808 MB/s)|
|CSV file                           |surface_flowdatabladeVALIDATION_Blade_18.csv|
|                                   |                     (20.5051 MB/s)|
+-----------------------------------------------------------------------+
+--------------------------------------+
|  Inner_Iter|   Time(sec)|    rms[Rho]|
+--------------------------------------+
|        1960|  1.0250e-01|   -3.279028|
|        1970|  1.0232e-01|   -3.328473|
|        1980|  1.0215e-01|   -3.389430|
|        1990|  1.0193e-01|   -3.442248|
|        2000|  1.0171e-01|   -3.481989|
+-----------------------------------------------------------------------+
|        File Writing Summary       |              Filename             |
+-----------------------------------------------------------------------+
|SU2 binary restart                 |restart_flow_databladeVALIDATION_Blade_18.dat|
|                                   |                     (12784.3 MB/s)|
|Paraview                           |volume_flow_databladeVALIDATION_Blade_18.vtu|
|                                   |                     (1070.96 MB/s)|
|Paraview surface                   |surface_flowdatabladeVALIDATION_Blade_18.vtu|
|                                   |                     (102.385 MB/s)|
|SU2 ASCII restart                  |restart_flow_databladeVALIDATION_Blade_18.csv|
|                                   |                     (20.7694 MB/s)|
|CSV file                           |surface_flowdatabladeVALIDATION_Blade_18.csv|
|                                   |                     (19.2024 MB/s)|
+-----------------------------------------------------------------------+
+--------------------------------------+
|  Inner_Iter|   Time(sec)|    rms[Rho]|
+--------------------------------------+
|        2010|  1.0269e-01|   -3.521163|
|        2020|  1.0251e-01|   -3.587871|
|        2030|  1.0228e-01|   -3.655816|
|        2040|  1.0211e-01|   -3.645974|
|        2050|  1.0196e-01|   -3.755890|
+-----------------------------------------------------------------------+
|        File Writing Summary       |              Filename             |
+-----------------------------------------------------------------------+
|SU2 binary restart                 |restart_flow_databladeVALIDATION_Blade_18.dat|
|                                   |                     (12335.6 MB/s)|
|Paraview                           |volume_flow_databladeVALIDATION_Blade_18.vtu|
|                                   |                       (921.9 MB/s)|
|Paraview surface                   |surface_flowdatabladeVALIDATION_Blade_18.vtu|
|                                   |                     (85.8721 MB/s)|
|SU2 ASCII restart                  |restart_flow_databladeVALIDATION_Blade_18.csv|
|                                   |                     (21.6906 MB/s)|
|CSV file                           |surface_flowdatabladeVALIDATION_Blade_18.csv|
|                                   |                     (22.1028 MB/s)|
+-----------------------------------------------------------------------+
+--------------------------------------+
|  Inner_Iter|   Time(sec)|    rms[Rho]|
+--------------------------------------+
|        2060|  1.0283e-01|   -3.871605|
|        2070|  1.0264e-01|   -3.750443|
|        2080|  1.0261e-01|   -3.585674|
|        2090|  1.0242e-01|   -3.643209|
|        2100|  1.0230e-01|   -3.616969|
+-----------------------------------------------------------------------+
|        File Writing Summary       |              Filename             |
+-----------------------------------------------------------------------+
|SU2 binary restart                 |restart_flow_databladeVALIDATION_Blade_18.dat|
|                                   |                     (12415.3 MB/s)|
|Paraview                           |volume_flow_databladeVALIDATION_Blade_18.vtu|
|                                   |                     (993.051 MB/s)|
|Paraview surface                   |surface_flowdatabladeVALIDATION_Blade_18.vtu|
|                                   |                     (106.473 MB/s)|
|SU2 ASCII restart                  |restart_flow_databladeVALIDATION_Blade_18.csv|
|                                   |                        (21.6 MB/s)|
|CSV file                           |surface_flowdatabladeVALIDATION_Blade_18.csv|
|                                   |                     (19.9403 MB/s)|
+-----------------------------------------------------------------------+
+--------------------------------------+
|  Inner_Iter|   Time(sec)|    rms[Rho]|
+--------------------------------------+
|        2110|  1.0321e-01|   -3.636602|
|        2120|  1.0304e-01|   -3.665155|
|        2130|  1.0289e-01|   -3.625167|
|        2140|  1.0275e-01|   -3.607501|
|        2150|  1.0254e-01|   -3.615265|
+-----------------------------------------------------------------------+
|        File Writing Summary       |              Filename             |
+-----------------------------------------------------------------------+
|SU2 binary restart                 |restart_flow_databladeVALIDATION_Blade_18.dat|
|                                   |                     (10856.6 MB/s)|
|Paraview                           |volume_flow_databladeVALIDATION_Blade_18.vtu|
|                                   |                     (989.953 MB/s)|
|Paraview surface                   |surface_flowdatabladeVALIDATION_Blade_18.vtu|
|                                   |                     (94.5435 MB/s)|
|SU2 ASCII restart                  |restart_flow_databladeVALIDATION_Blade_18.csv|
|                                   |                     (21.8404 MB/s)|
|CSV file                           |surface_flowdatabladeVALIDATION_Blade_18.csv|
|                                   |                      (20.805 MB/s)|
+-----------------------------------------------------------------------+
+--------------------------------------+
|  Inner_Iter|   Time(sec)|    rms[Rho]|
+--------------------------------------+
|        2160|  1.0338e-01|   -3.596809|
|        2170|  1.0320e-01|   -3.583742|
|        2180|  1.0302e-01|   -3.599244|
|        2190|  1.0281e-01|   -3.625321|
|        2200|  1.0263e-01|   -3.636742|
+-----------------------------------------------------------------------+
|        File Writing Summary       |              Filename             |
+-----------------------------------------------------------------------+
|SU2 binary restart                 |restart_flow_databladeVALIDATION_Blade_18.dat|
|                                   |                     (9653.85 MB/s)|
|Paraview                           |volume_flow_databladeVALIDATION_Blade_18.vtu|
|                                   |                     (972.923 MB/s)|
|Paraview surface                   |surface_flowdatabladeVALIDATION_Blade_18.vtu|
|                                   |                     (104.711 MB/s)|
|SU2 ASCII restart                  |restart_flow_databladeVALIDATION_Blade_18.csv|
|                                   |                     (22.0435 MB/s)|
|CSV file                           |surface_flowdatabladeVALIDATION_Blade_18.csv|
|                                   |                      (20.824 MB/s)|
+-----------------------------------------------------------------------+
+--------------------------------------+
|  Inner_Iter|   Time(sec)|    rms[Rho]|
+--------------------------------------+
|        2210|  1.0347e-01|   -3.645531|
|        2220|  1.0327e-01|   -3.682713|
|        2230|  1.0314e-01|   -3.678686|
|        2240|  1.0296e-01|   -3.777150|
|        2250|  1.0277e-01|   -3.862225|
+-----------------------------------------------------------------------+
|        File Writing Summary       |              Filename             |
+-----------------------------------------------------------------------+
|SU2 binary restart                 |restart_flow_databladeVALIDATION_Blade_18.dat|
|                                   |                     (10696.5 MB/s)|
|Paraview                           |volume_flow_databladeVALIDATION_Blade_18.vtu|
|                                   |                     (963.318 MB/s)|
|Paraview surface                   |surface_flowdatabladeVALIDATION_Blade_18.vtu|
|                                   |                     (90.7977 MB/s)|
|SU2 ASCII restart                  |restart_flow_databladeVALIDATION_Blade_18.csv|
|                                   |                     (20.9995 MB/s)|
|CSV file                           |surface_flowdatabladeVALIDATION_Blade_18.csv|
|                                   |                     (22.0193 MB/s)|
+-----------------------------------------------------------------------+
+--------------------------------------+
|  Inner_Iter|   Time(sec)|    rms[Rho]|
+--------------------------------------+
|        2260|  1.0361e-01|   -3.886960|
|        2270|  1.0345e-01|   -4.005386|
|        2280|  1.0327e-01|   -4.140373|
|        2290|  1.0310e-01|   -3.921969|
|        2300|  1.0296e-01|   -3.855085|
+-----------------------------------------------------------------------+
|        File Writing Summary       |              Filename             |
+-----------------------------------------------------------------------+
|SU2 binary restart                 |restart_flow_databladeVALIDATION_Blade_18.dat|
|                                   |                     (9881.64 MB/s)|
|Paraview                           |volume_flow_databladeVALIDATION_Blade_18.vtu|
|                                   |                     (1025.39 MB/s)|
|Paraview surface                   |surface_flowdatabladeVALIDATION_Blade_18.vtu|
|                                   |                      (102.73 MB/s)|
|SU2 ASCII restart                  |restart_flow_databladeVALIDATION_Blade_18.csv|
|                                   |                     (21.3842 MB/s)|
|CSV file                           |surface_flowdatabladeVALIDATION_Blade_18.csv|
|                                   |                     (21.6756 MB/s)|
+-----------------------------------------------------------------------+
+--------------------------------------+
|  Inner_Iter|   Time(sec)|    rms[Rho]|
+--------------------------------------+
|        2310|  1.0375e-01|   -3.826840|
|        2320|  1.0356e-01|   -3.761165|
|        2330|  1.0340e-01|   -3.719664|
|        2340|  1.0324e-01|   -3.711665|
|        2350|  1.0306e-01|   -3.725197|
+-----------------------------------------------------------------------+
|        File Writing Summary       |              Filename             |
+-----------------------------------------------------------------------+
|SU2 binary restart                 |restart_flow_databladeVALIDATION_Blade_18.dat|
|                                   |                       (12891 MB/s)|
|Paraview                           |volume_flow_databladeVALIDATION_Blade_18.vtu|
[...]
+-----------------------------------------------------------------------+
|SU2 binary restart                 |restart_flow_databladeVALIDATION_Blade_18.dat|
|                                   |                       (10916 MB/s)|
|Paraview                           |volume_flow_databladeVALIDATION_Blade_18.vtu|
|                                   |                     (1037.36 MB/s)|
|Paraview surface                   |surface_flowdatabladeVALIDATION_Blade_18.vtu|
|                                   |                     (89.6531 MB/s)|
|SU2 ASCII restart                  |restart_flow_databladeVALIDATION_Blade_18.csv|
|                                   |                     (21.6405 MB/s)|
|CSV file                           |surface_flowdatabladeVALIDATION_Blade_18.csv|
|                                   |                     (20.0302 MB/s)|
+-----------------------------------------------------------------------+
+--------------------------------------+
|  Inner_Iter|   Time(sec)|    rms[Rho]|
+--------------------------------------+
|        5160|  1.0748e-01|   -6.816794|
|        5170|  1.0739e-01|   -6.876481|
|        5180|  1.0730e-01|   -6.892819|
|        5190|  1.0722e-01|   -6.838823|
|        5200|  1.0714e-01|   -6.837096|
+-----------------------------------------------------------------------+
|        File Writing Summary       |              Filename             |
+-----------------------------------------------------------------------+
|SU2 binary restart                 |restart_flow_databladeVALIDATION_Blade_18.dat|
|                                   |                     (11461.9 MB/s)|
|Paraview                           |volume_flow_databladeVALIDATION_Blade_18.vtu|
|                                   |                     (1065.21 MB/s)|
|Paraview surface                   |surface_flowdatabladeVALIDATION_Blade_18.vtu|
|                                   |                     (93.3501 MB/s)|
|SU2 ASCII restart                  |restart_flow_databladeVALIDATION_Blade_18.csv|
|                                   |                     (21.5622 MB/s)|
|CSV file                           |surface_flowdatabladeVALIDATION_Blade_18.csv|
|                                   |                     (19.6496 MB/s)|
+-----------------------------------------------------------------------+
+--------------------------------------+
|  Inner_Iter|   Time(sec)|    rms[Rho]|
+--------------------------------------+
|        5210|  1.0748e-01|   -6.889844|
|        5220|  1.0740e-01|   -6.849888|
|        5230|  1.0732e-01|   -6.858923|
|        5240|  1.0723e-01|   -6.914584|
|        5250|  1.0714e-01|   -6.890659|
+-----------------------------------------------------------------------+
|        File Writing Summary       |              Filename             |
+-----------------------------------------------------------------------+
|SU2 binary restart                 |restart_flow_databladeVALIDATION_Blade_18.dat|
|                                   |                     (11600.4 MB/s)|
|Paraview                           |volume_flow_databladeVALIDATION_Blade_18.vtu|
|                                   |                     (1034.48 MB/s)|
|Paraview surface                   |surface_flowdatabladeVALIDATION_Blade_18.vtu|
|                                   |                     (92.7575 MB/s)|
|SU2 ASCII restart                  |restart_flow_databladeVALIDATION_Blade_18.csv|
|                                   |                     (20.9483 MB/s)|
|CSV file                           |surface_flowdatabladeVALIDATION_Blade_18.csv|
|                                   |                     (21.1912 MB/s)|
+-----------------------------------------------------------------------+
+--------------------------------------+
|  Inner_Iter|   Time(sec)|    rms[Rho]|
+--------------------------------------+
|        5260|  1.0750e-01|   -6.855153|
|        5270|  1.0743e-01|   -6.900435|
|        5280|  1.0733e-01|   -6.912694|
|        5290|  1.0725e-01|   -6.869005|
|        5300|  1.0717e-01|   -6.859123|
+-----------------------------------------------------------------------+
|        File Writing Summary       |              Filename             |
+-----------------------------------------------------------------------+
|SU2 binary restart                 |restart_flow_databladeVALIDATION_Blade_18.dat|
|                                   |                     (12160.3 MB/s)|
|Paraview                           |volume_flow_databladeVALIDATION_Blade_18.vtu|
|                                   |                     (1080.84 MB/s)|
|Paraview surface                   |surface_flowdatabladeVALIDATION_Blade_18.vtu|
|                                   |                      (90.457 MB/s)|
|SU2 ASCII restart                  |restart_flow_databladeVALIDATION_Blade_18.csv|
|                                   |                     (21.4734 MB/s)|
|CSV file                           |surface_flowdatabladeVALIDATION_Blade_18.csv|
|                                   |                     (21.3145 MB/s)|
+-----------------------------------------------------------------------+
+--------------------------------------+
|  Inner_Iter|   Time(sec)|    rms[Rho]|
+--------------------------------------+
|        5310|  1.0750e-01|   -6.886328|
|        5320|  1.0741e-01|   -6.880185|
|        5330|  1.0734e-01|   -6.827154|
|        5340|  1.0726e-01|   -6.857070|
|        5350|  1.0717e-01|   -6.865297|
+-----------------------------------------------------------------------+
|        File Writing Summary       |              Filename             |
+-----------------------------------------------------------------------+
|SU2 binary restart                 |restart_flow_databladeVALIDATION_Blade_18.dat|
|                                   |                     (8917.93 MB/s)|
|Paraview                           |volume_flow_databladeVALIDATION_Blade_18.vtu|
|                                   |                     (1068.12 MB/s)|
|Paraview surface                   |surface_flowdatabladeVALIDATION_Blade_18.vtu|
|                                   |                     (99.5853 MB/s)|
|SU2 ASCII restart                  |restart_flow_databladeVALIDATION_Blade_18.csv|
|                                   |                     (21.4992 MB/s)|
|CSV file                           |surface_flowdatabladeVALIDATION_Blade_18.csv|
|                                   |                     (19.7795 MB/s)|
+-----------------------------------------------------------------------+
+--------------------------------------+
|  Inner_Iter|   Time(sec)|    rms[Rho]|
+--------------------------------------+
|        5360|  1.0750e-01|   -6.853188|
|        5370|  1.0744e-01|   -6.839983|
|        5380|  1.0735e-01|   -6.869284|
|        5390|  1.0728e-01|   -6.865112|
|        5400|  1.0720e-01|   -6.900375|
+-----------------------------------------------------------------------+
|        File Writing Summary       |              Filename             |
+-----------------------------------------------------------------------+
|SU2 binary restart                 |restart_flow_databladeVALIDATION_Blade_18.dat|
|                                   |                     (12160.3 MB/s)|
|Paraview                           |volume_flow_databladeVALIDATION_Blade_18.vtu|
|                                   |                     (1099.13 MB/s)|
|Paraview surface                   |surface_flowdatabladeVALIDATION_Blade_18.vtu|
|                                   |                     (84.4938 MB/s)|
|SU2 ASCII restart                  |restart_flow_databladeVALIDATION_Blade_18.csv|
|                                   |                     (21.6733 MB/s)|
|CSV file                           |surface_flowdatabladeVALIDATION_Blade_18.csv|
|                                   |                     (22.7466 MB/s)|
+-----------------------------------------------------------------------+
+--------------------------------------+
|  Inner_Iter|   Time(sec)|    rms[Rho]|
+--------------------------------------+
|        5410|  1.0754e-01|   -6.889771|
|        5420|  1.0746e-01|   -6.929822|
|        5430|  1.0737e-01|   -6.916858|
|        5440|  1.0730e-01|   -6.927024|
|        5450|  1.0721e-01|   -6.957541|
+-----------------------------------------------------------------------+
|        File Writing Summary       |              Filename             |
+-----------------------------------------------------------------------+
|SU2 binary restart                 |restart_flow_databladeVALIDATION_Blade_18.dat|
|                                   |                     (11601.3 MB/s)|
|Paraview                           |volume_flow_databladeVALIDATION_Blade_18.vtu|
|                                   |                     (992.665 MB/s)|
|Paraview surface                   |surface_flowdatabladeVALIDATION_Blade_18.vtu|
|                                   |                     (123.135 MB/s)|
|SU2 ASCII restart                  |restart_flow_databladeVALIDATION_Blade_18.csv|
|                                   |                     (21.5975 MB/s)|
|CSV file                           |surface_flowdatabladeVALIDATION_Blade_18.csv|
|                                   |                     (21.3483 MB/s)|
+-----------------------------------------------------------------------+
+--------------------------------------+
|  Inner_Iter|   Time(sec)|    rms[Rho]|
+--------------------------------------+
|        5460|  1.0753e-01|   -6.945840|
|        5470|  1.0747e-01|   -6.912607|
|        5480|  1.0738e-01|   -6.959616|
|        5490|  1.0731e-01|   -6.945929|
|        5500|  1.0723e-01|   -6.933086|
+-----------------------------------------------------------------------+
|        File Writing Summary       |              Filename             |
+-----------------------------------------------------------------------+
|SU2 binary restart                 |restart_flow_databladeVALIDATION_Blade_18.dat|
|                                   |                     (11155.8 MB/s)|
|Paraview                           |volume_flow_databladeVALIDATION_Blade_18.vtu|
|                                   |                     (959.319 MB/s)|
|Paraview surface                   |surface_flowdatabladeVALIDATION_Blade_18.vtu|
|                                   |                     (102.034 MB/s)|
|SU2 ASCII restart                  |restart_flow_databladeVALIDATION_Blade_18.csv|
|                                   |                      (21.644 MB/s)|
|CSV file                           |surface_flowdatabladeVALIDATION_Blade_18.csv|
|                                   |                     (19.2742 MB/s)|
+-----------------------------------------------------------------------+
+--------------------------------------+
|  Inner_Iter|   Time(sec)|    rms[Rho]|
+--------------------------------------+
|        5510|  1.0755e-01|   -6.968671|
|        5520|  1.0746e-01|   -6.959706|
|        5530|  1.0738e-01|   -6.939133|
|        5540|  1.0731e-01|   -6.950874|
|        5550|  1.0722e-01|   -6.961295|
+-----------------------------------------------------------------------+
|        File Writing Summary       |              Filename             |
+-----------------------------------------------------------------------+
|SU2 binary restart                 |restart_flow_databladeVALIDATION_Blade_18.dat|
|                                   |                     (11468.6 MB/s)|
|Paraview                           |volume_flow_databladeVALIDATION_Blade_18.vtu|
|                                   |                     (1090.93 MB/s)|
|Paraview surface                   |surface_flowdatabladeVALIDATION_Blade_18.vtu|
|                                   |                      (102.52 MB/s)|
|SU2 ASCII restart                  |restart_flow_databladeVALIDATION_Blade_18.csv|
|                                   |                     (21.2212 MB/s)|
|CSV file                           |surface_flowdatabladeVALIDATION_Blade_18.csv|
|                                   |                     (21.6072 MB/s)|
+-----------------------------------------------------------------------+
+--------------------------------------+
|  Inner_Iter|   Time(sec)|    rms[Rho]|
+--------------------------------------+
|        5560|  1.0754e-01|   -6.944181|
|        5570|  1.0747e-01|   -6.935030|
|        5580|  1.0738e-01|   -6.943133|
|        5590|  1.0729e-01|   -6.943318|
|        5600|  1.0722e-01|   -6.919637|
+-----------------------------------------------------------------------+
|        File Writing Summary       |              Filename             |
+-----------------------------------------------------------------------+
|SU2 binary restart                 |restart_flow_databladeVALIDATION_Blade_18.dat|
|                                   |                     (11624.4 MB/s)|
|Paraview                           |volume_flow_databladeVALIDATION_Blade_18.vtu|
|                                   |                     (1053.91 MB/s)|
|Paraview surface                   |surface_flowdatabladeVALIDATION_Blade_18.vtu|
|                                   |                     (104.253 MB/s)|
|SU2 ASCII restart                  |restart_flow_databladeVALIDATION_Blade_18.csv|
|                                   |                     (21.7528 MB/s)|
|CSV file                           |surface_flowdatabladeVALIDATION_Blade_18.csv|
|                                   |                     (21.1365 MB/s)|
+-----------------------------------------------------------------------+
+--------------------------------------+
|  Inner_Iter|   Time(sec)|    rms[Rho]|
+--------------------------------------+
|        5610|  1.0754e-01|   -6.927299|
|        5620|  1.0745e-01|   -6.935835|
|        5630|  1.0737e-01|   -6.933586|
|        5640|  1.0730e-01|   -6.921712|
|        5650|  1.0724e-01|   -6.924676|
+-----------------------------------------------------------------------+
|        File Writing Summary       |              Filename             |
+-----------------------------------------------------------------------+
|SU2 binary restart                 |restart_flow_databladeVALIDATION_Blade_18.dat|
|                                   |                     (11704.7 MB/s)|
|Paraview                           |volume_flow_databladeVALIDATION_Blade_18.vtu|
|                                   |                      (1042.6 MB/s)|
|Paraview surface                   |surface_flowdatabladeVALIDATION_Blade_18.vtu|
|                                   |                      (68.337 MB/s)|
|SU2 ASCII restart                  |restart_flow_databladeVALIDATION_Blade_18.csv|
|                                   |                     (21.6553 MB/s)|
|CSV file                           |surface_flowdatabladeVALIDATION_Blade_18.csv|
|                                   |                     (22.2284 MB/s)|
+-----------------------------------------------------------------------+
+--------------------------------------+
|  Inner_Iter|   Time(sec)|    rms[Rho]|
+--------------------------------------+
|        5660|  1.0755e-01|   -6.952630|
|        5670|  1.0747e-01|   -6.950849|
|        5680|  1.0740e-01|   -6.960017|
|        5690|  1.0731e-01|   -6.976051|
|        5700|  1.0723e-01|   -6.972857|
+-----------------------------------------------------------------------+
|        File Writing Summary       |              Filename             |
+-----------------------------------------------------------------------+
|SU2 binary restart                 |restart_flow_databladeVALIDATION_Blade_18.dat|
|                                   |                     (13741.5 MB/s)|
|Paraview                           |volume_flow_databladeVALIDATION_Blade_18.vtu|
|                                   |                     (1099.91 MB/s)|
|Paraview surface                   |surface_flowdatabladeVALIDATION_Blade_18.vtu|
|                                   |                     (102.616 MB/s)|
|SU2 ASCII restart                  |restart_flow_databladeVALIDATION_Blade_18.csv|
|                                   |                     (21.0034 MB/s)|
|CSV file                           |surface_flowdatabladeVALIDATION_Blade_18.csv|
|                                   |                     (20.0263 MB/s)|
+-----------------------------------------------------------------------+
+--------------------------------------+
|  Inner_Iter|   Time(sec)|    rms[Rho]|
+--------------------------------------+
|        5710|  1.0756e-01|   -6.972857|
|        5720|  1.0748e-01|   -6.993194|
|        5730|  1.0740e-01|   -6.989101|
|        5740|  1.0733e-01|   -6.974604|
|        5749|  1.0726e-01|   -7.000536|

----------------------------- Solver Exit -------------------------------
All convergence criteria satisfied.
+-----------------------------------------------------------------------+
|      Convergence Field     |     Value    |   Criterion  |  Converged |
+-----------------------------------------------------------------------+
|                    rms[Rho]|      -7.00054|          < -7|         Yes|
+-----------------------------------------------------------------------+
-------------------------------------------------------------------------
+-----------------------------------------------------------------------+
|        File Writing Summary       |              Filename             |
+-----------------------------------------------------------------------+
|SU2 binary restart                 |restart_flow_databladeVALIDATION_Blade_18.dat|
|                                   |                     (11663.1 MB/s)|
|Paraview                           |volume_flow_databladeVALIDATION_Blade_18.vtu|
|                                   |                     (1083.76 MB/s)|
|Paraview surface                   |surface_flowdatabladeVALIDATION_Blade_18.vtu|
|                                   |                     (94.1558 MB/s)|
|SU2 ASCII restart                  |restart_flow_databladeVALIDATION_Blade_18.csv|
|                                   |                     (21.4726 MB/s)|
|CSV file                           |surface_flowdatabladeVALIDATION_Blade_18.csv|
|                                   |                     (20.7945 MB/s)|
+-----------------------------------------------------------------------+

--------------------------- Finalizing Solver ---------------------------
Deleted CNumerics container.
Deleted CIntegration container.
Deleted CSolver container.
Deleted CIteration container.
Deleted CInterface container.
Deleted CGeometry container.
Deleted CFreeFormDefBox class.
Deleted CSurfaceMovement class.
Deleted CVolumetricMovement class.
Deleted CConfig container.
Deleted nInst container.
Deleted COutput class.
-------------------------------------------------------------------------


-------------------------- Performance Summary --------------------------
Simulation totals:
   Wall-clock time (hrs):    0.172053 |            Core-hrs:     2.06463
                   Cores:          12 |          DOFs/point:           5
             Points/core:     4966.25 |   Ghost points/core:      131.25
 Ghost/Owned Point Ratio:   0.0264284 | 

Preprocessing phase:
       Preproc. Time (s):    0.421082 |   Preproc. Time (%):   0.0679834

Compute phase:
        Compute Time (s):      616.73 |    Compute Time (%):     99.5707
         Iteration count:        5750 |         Avg. s/iter:    0.107257
     Core-s/iter/Mpoints:     21.0412 |           Mpoints/s:     0.57031

Output phase:
         Output Time (s):     2.23795 |     Output Time (%):    0.361315
            Output count:           1 |       Avg. s/output:     2.23795
 Restart Aggr. BW (MB/s): 1.36879e+06 |           MB/s/core:      114066
-------------------------------------------------------------------------


------------------------- Exit Success (SU2_CFD) ------------------------

