
-------------------------------------------------------------------------
|    ___ _   _ ___                                                      |
|   / __| | | |_  )   Release 8.0.1 "Harrier"                           |
|   \__ \ |_| |/ /                                                      |
|   |___/\___//___|   Suite (Computational Fluid Dynamics Code)         |
|                                                                       |
-------------------------------------------------------------------------
| SU2 Project Website: https://su2code.github.io                        |
|                                                                       |
| The SU2 Project is maintained by the SU2 Foundation                   |
| (http://su2foundation.org)                                            |
-------------------------------------------------------------------------
| Copyright 2012-2024, SU2 Contributors                                 |
|                                                                       |
| SU2 is free software; you can redistribute it and/or                  |
| modify it under the terms of the GNU Lesser General Public            |
| License as published by the Free Software Foundation; either          |
| version 2.1 of the License, or (at your option) any later version.    |
|                                                                       |
| SU2 is distributed in the hope that it will be useful,                |
| but WITHOUT ANY WARRANTY; without even the implied warranty of        |
| MERCHANTABILITY or FITNESS FOR A PARTICULAR PURPOSE. See the GNU      |
| Lesser General Public License for more details.                       |
|                                                                       |
| You should have received a copy of the GNU Lesser General Public      |
| License along with SU2. If not, see <http://www.gnu.org/licenses/>.   |
-------------------------------------------------------------------------

Parsing config file for zone 0

----------------- Physical Case Definition ( Zone 0 ) -------------------
Compressible RANS equations.
Turbulence model: Spalart-Allmaras-noft2-BCM
Hybrid RANS/LES: No Hybrid RANS/LES
Mach number: 0.667.
Angle of attack (AoA): -19 deg, and angle of sideslip (AoS): 0 deg.
Reynolds number: 600000. Reference length 1.00146.
No restart solution, use the values at infinity (freestream).
Dimensional simulation.
The reference area will be computed using y(2D) or z(3D) projection.
The semi-span will be computed using the max y(3D) value.
The reference length is 1.00146 m.
Reference origin for moment evaluation is (0, 0, 0).
Surface(s) where the force coefficients are evaluated: blade1.

Surface(s) plotted in the output file: blade1.
Surface(s) to be analyzed in detail: inlet, outlet, blade1.
Input mesh file name: cascade2D_databladeVALIDATION_Blade_21.su2

--------------- Space Numerical Integration ( Zone 0 ) ------------------
Jameson-Schmidt-Turkel scheme (2nd order in space) for the flow inviscid terms.
JST viscous coefficients (2nd & 4th): 0.5, 0.02.
The method includes a grid stretching correction (p = 0.3).
Scalar upwind solver for the turbulence model.
First order integration in space.
Average of gradients with correction (viscous flow terms).
Average of gradients with correction (viscous turbulence terms).
Gradient for upwind reconstruction: inverse-distance weighted Least-Squares.
Gradient for viscous and source terms: inverse-distance weighted Least-Squares.

--------------- Time Numerical Integration  ( Zone 0 ) ------------------
Local time stepping (steady state simulation).
Euler implicit method for the flow equations.
FGMRES is used for solving the linear system.
Using a LU-SGS preconditioning.
Convergence criteria of the linear solver: 0.0001.
Max number of linear iterations: 10.
V Multigrid Cycle, with 3 multigrid levels.
Damping factor for the residual restriction: 0.75.
Damping factor for the correction prolongation: 0.75.
CFL adaptation. Factor down: 0.1, factor up: 1.2,
                lower limit: 0.1, upper limit: 100,
                acceptable linear residual: 0.001.
+-------------------------------------------+
|  MG Level| Presmooth|PostSmooth|CorrectSmo|
+-------------------------------------------+
|         0|         1|         0|         1|
|         1|         2|         2|         2|
|         2|         3|         3|         3|
|         3|         3|         0|         0|
+-------------------------------------------+
Courant-Friedrichs-Lewy number:       12
Euler implicit time integration for the turbulence model.

------------------ Convergence Criteria  ( Zone 0 ) ---------------------
Maximum number of solver subiterations: 7000.
Begin convergence monitoring at iteration 500.
Residual minimum value: 1e-7.
Cauchy series min. value: 1e-10.
Number of Cauchy elements: 100.
Begin windowed time average at iteration 0.

-------------------- Output Information ( Zone 0 ) ----------------------
File writing frequency: 
+------------------------------------+
|                     File| Frequency|
+------------------------------------+
|                  RESTART|        50|
|                 PARAVIEW|        50|
|         SURFACE_PARAVIEW|        50|
|                      CSV|        50|
|              SURFACE_CSV|        50|
+------------------------------------+
Writing the convergence history file every 1 inner iterations.
Writing the screen convergence history every 10 inner iterations.
The tabular file format is CSV (.csv).
Convergence history file name: history_databladeVALIDATION_Blade_21.
Forces breakdown file name: forces_breakdown.dat.
Surface file name: surface_flowdatabladeVALIDATION_Blade_21.
Volume file name: volume_flow_databladeVALIDATION_Blade_21.
Restart file name: restart_flow_databladeVALIDATION_Blade_21.dat.

------------- Config File Boundary Information ( Zone 0 ) ---------------
+-----------------------------------------------------------------------+
|                        Marker Type|                        Marker Name|
+-----------------------------------------------------------------------+
|                  Periodic boundary|               symmetricWallsBOTTOM|
|                                   |                  symmetricWallsTOP|
+-----------------------------------------------------------------------+
|                     Inlet boundary|                              inlet|
+-----------------------------------------------------------------------+
|                    Outlet boundary|                             outlet|
+-----------------------------------------------------------------------+
|                     Heat flux wall|                             blade1|
|                                   |                             blade2|
+-----------------------------------------------------------------------+

-------------------- Output Preprocessing ( Zone 0 ) --------------------
  Info: Ignoring the following screen output fields:
  LINSOL_ITER_TRANS, LINSOL_RESIDUAL_TRANS
Screen output fields: INNER_ITER, WALL_TIME, RMS_DENSITY
  Info: Ignoring the following history output groups:
  RMS_TKE, RMS_DISSIPATION
History output group(s): INNER_ITER, WALL_TIME, RMS_DENSITY, RMS_MOMENTUM-X, RMS_ENERGY, LINSOL, CFL_NUMBER, FLOW_COEFF_SURF, AERO_COEFF_SURF
Convergence field(s): RMS_DENSITY
Warning: No (valid) fields chosen for time convergence monitoring. Time convergence monitoring inactive.
Volume output fields: COORDINATES, SOLUTION, PRIMITIVE, RESIDUAL, TIMESTEP, MESH_QUALITY, VORTEX_IDENTIFICATION

------------------- Geometry Preprocessing ( Zone 0 ) -------------------
Two dimensional problem.
62039 grid points before partitioning.
93492 volume elements before partitioning.
5 surface markers.
27 boundary elements in index 0 (Marker = inlet).
416 boundary elements in index 1 (Marker = symmetricWallsBOTTOM).
416 boundary elements in index 2 (Marker = symmetricWallsTOP).
77 boundary elements in index 3 (Marker = outlet).
1186 boundary elements in index 4 (Marker = blade1).
Executing the partitioning functions.
Building the graph adjacency structure.
Calling ParMETIS... graph partitioning complete (1348 edge cuts).
Distributing ParMETIS coloring.
Rebalancing vertices.
Rebalancing volume element connectivity.
Rebalancing markers and surface elements.
63723 vertices including ghost points. 
94829 interior elements including halo cells. 
66044 triangles.
28785 quadrilaterals.
Establishing MPI communication patterns.
Setting point connectivity.
Renumbering points (Reverse Cuthill McKee Ordering).
Recomputing point connectivity.
Setting element connectivity.
Checking the numerical grid orientation.
All volume elements are correctly orientend.
There has been a re-orientation of 1047 LINE surface elements.
Identifying edges and vertices.
Setting the control volume structure.
Area of the computational grid: 3.50763.
Searching for the closest normal neighbors to the surfaces.
Storing a mapping from global to local point index.
Compute the surface curvature.
Max K: 140.915. Mean K: 3.18873. Standard deviation K: 11.6576.
Checking for periodicity.
WARNING: Periodicity has been detected. Disabling multigrid. 
Computing mesh quality statistics for the dual control volumes.
+--------------------------------------------------------------+
|           Mesh Quality Metric|        Minimum|        Maximum|
+--------------------------------------------------------------+
|    Orthogonality Angle (deg.)|        41.2104|             90|
|     CV Face Area Aspect Ratio|         1.0001|        339.428|
|           CV Sub-Volume Ratio|              1|        18.2547|
+--------------------------------------------------------------+
Finding max control volume width.
Communicating number of neighbors.
Reference length = 1.01904 m.
Wetted area = 3.15731 m.
Area projection in the x-plane = 1.05933 m, y-plane = 1.01904 m.
Max. coordinate in the x-direction = 1.01606 m, y-direction = 0.827246 m.
Min. coordinate in the x-direction = -0.00299233 m, y-direction = -0.232097 m.
Matching the periodic boundary points for marker pair 1.
 Matched 834 points with a max distance of: 1.31949e-13.
Computing wall distances.

-------------------- Solver Preprocessing ( Zone 0 ) --------------------
Viscous flow: Computing pressure using the ideal gas law
based on the free-stream temperature and a density computed
from the Reynolds number.
Force coefficients computed using free-stream values.

-- Models:
+------------------------------------------------------------------------------+
|          Viscosity Model|        Conductivity Model|              Fluid Model|
+------------------------------------------------------------------------------+
|               SUTHERLAND|          CONSTANT_PRANDTL|                IDEAL_GAS|
+------------------------------------------------------------------------------+
-- Fluid properties:
+------------------------------------------------------------------------------+
|                  Name|    Dim. value|    Ref. value|      Unit|Non-dim. value|
+------------------------------------------------------------------------------+
|        Ref. Viscosity|     1.716e-05|             1|   N.s/m^2|     1.716e-05|
|      Sutherland Temp.|        273.15|             1|         K|        273.15|
|     Sutherland Const.|         110.4|             1|         K|         110.4|
+------------------------------------------------------------------------------+
|        Prandtl (Lam.)|             -|             -|         -|          0.72|
|       Prandtl (Turb.)|             -|             -|         -|           0.9|
+------------------------------------------------------------------------------+
|          Gas Constant|       287.058|             1|  N.m/kg.K|       287.058|
|      Spec. Heat Ratio|             -|             -|         -|           1.4|
+------------------------------------------------------------------------------+
-- Initial and free-stream conditions:
+------------------------------------------------------------------------------+
|                  Name|    Dim. value|    Ref. value|      Unit|Non-dim. value|
+------------------------------------------------------------------------------+
|       Static Pressure|       4112.31|             1|        Pa|       4112.31|
|               Density|     0.0477524|             1|    kg/m^3|     0.0477524|
|           Temperature|           300|             1|         K|           300|
|          Total Energy|        242112|             1|   m^2/s^2|        242112|
|            Velocity-X|        218.98|             1|       m/s|        218.98|
|            Velocity-Y|       -75.401|             1|       m/s|       -75.401|
|    Velocity Magnitude|       231.598|             1|       m/s|       231.598|
+------------------------------------------------------------------------------+
|             Viscosity|   1.84592e-05|             1|   N.s/m^2|   1.84592e-05|
|          Conductivity|             -|             1|   W/m^2.K|             -|
|     Turb. Kin. Energy|       98.5594|             1|   m^2/s^2|       98.5594|
|     Spec. Dissipation|   2.54965e+06|             1|       1/s|   2.54965e+06|
+------------------------------------------------------------------------------+
|           Mach Number|             -|             -|         -|         0.667|
|       Reynolds Number|             -|             -|         -|        600000|
+------------------------------------------------------------------------------+
Initialize Jacobian structure (Navier-Stokes). MG level: 0.
Initialize Jacobian structure (SA model).

------------------- Numerics Preprocessing ( Zone 0 ) -------------------

----------------- Integration Preprocessing ( Zone 0 ) ------------------

------------------- Iteration Preprocessing ( Zone 0 ) ------------------
Euler/Navier-Stokes/RANS fluid iteration.

------------------------------ Begin Solver -----------------------------

Simulation Run using the Single-zone Driver
WARNING: SU2 was not compiled for an AVX-capable architecture. Performance could be better,
         see https://su2code.github.io/docs_v7/Build-SU2-Linux-MacOS/#compiler-optimizations
+--------------------------------------+
|  Inner_Iter|   Time(sec)|    rms[Rho]|
+--------------------------------------+
|           0|  8.5368e-02|   -2.455111|
|          10|  6.6656e-02|   -3.097173|
|          20|  6.7803e-02|   -2.922625|
|          30|  6.9396e-02|   -2.880388|
|          40|  6.6837e-02|   -2.816351|
|          50|  6.7583e-02|   -2.771326|
+-----------------------------------------------------------------------+
|        File Writing Summary       |              Filename             |
+-----------------------------------------------------------------------+
|SU2 binary restart                 |restart_flow_databladeVALIDATION_Blade_21.dat|
|                                   |                     (12251.7 MB/s)|
|Paraview                           |volume_flow_databladeVALIDATION_Blade_21.vtu|
|                                   |                     (1122.91 MB/s)|
|Paraview surface                   |surface_flowdatabladeVALIDATION_Blade_21.vtu|
|                                   |                     (90.1897 MB/s)|
|SU2 ASCII restart                  |restart_flow_databladeVALIDATION_Blade_21.csv|
|                                   |                     (21.6237 MB/s)|
|CSV file                           |surface_flowdatabladeVALIDATION_Blade_21.csv|
|                                   |                     (21.3285 MB/s)|
+-----------------------------------------------------------------------+
+--------------------------------------+
|  Inner_Iter|   Time(sec)|    rms[Rho]|
+--------------------------------------+
|          60|  1.0804e-01|   -2.927374|
|          70|  1.0334e-01|   -3.064383|
|          80|  9.8865e-02|   -3.089827|
|          90|  9.5985e-02|   -2.920965|
|         100|  9.3656e-02|   -2.920910|
+-----------------------------------------------------------------------+
|        File Writing Summary       |              Filename             |
+-----------------------------------------------------------------------+
|SU2 binary restart                 |restart_flow_databladeVALIDATION_Blade_21.dat|
|                                   |                     (10201.4 MB/s)|
|Paraview                           |volume_flow_databladeVALIDATION_Blade_21.vtu|
|                                   |                     (907.331 MB/s)|
|Paraview surface                   |surface_flowdatabladeVALIDATION_Blade_21.vtu|
|                                   |                      (78.039 MB/s)|
|SU2 ASCII restart                  |restart_flow_databladeVALIDATION_Blade_21.csv|
|                                   |                      (21.276 MB/s)|
|CSV file                           |surface_flowdatabladeVALIDATION_Blade_21.csv|
|                                   |                     (20.7217 MB/s)|
+-----------------------------------------------------------------------+
+--------------------------------------+
|  Inner_Iter|   Time(sec)|    rms[Rho]|
+--------------------------------------+
|         110|  1.1238e-01|   -2.979124|
|         120|  1.0894e-01|   -2.948342|
|         130|  1.0592e-01|   -2.896604|
|         140|  1.0264e-01|   -2.999475|
|         150|  1.0064e-01|   -3.036076|
+-----------------------------------------------------------------------+
|        File Writing Summary       |              Filename             |
+-----------------------------------------------------------------------+
|SU2 binary restart                 |restart_flow_databladeVALIDATION_Blade_21.dat|
|                                   |                     (12618.6 MB/s)|
|Paraview                           |volume_flow_databladeVALIDATION_Blade_21.vtu|
|                                   |                     (915.759 MB/s)|
|Paraview surface                   |surface_flowdatabladeVALIDATION_Blade_21.vtu|
|                                   |                     (86.5939 MB/s)|
|SU2 ASCII restart                  |restart_flow_databladeVALIDATION_Blade_21.csv|
|                                   |                     (20.7546 MB/s)|
|CSV file                           |surface_flowdatabladeVALIDATION_Blade_21.csv|
|                                   |                     (20.0796 MB/s)|
+-----------------------------------------------------------------------+
+--------------------------------------+
|  Inner_Iter|   Time(sec)|    rms[Rho]|
+--------------------------------------+
|         160|  1.1342e-01|   -3.014440|
|         170|  1.1108e-01|   -3.000529|
|         180|  1.0872e-01|   -3.019632|
|         190|  1.0673e-01|   -3.057518|
|         200|  1.0503e-01|   -3.029395|
+-----------------------------------------------------------------------+
|        File Writing Summary       |              Filename             |
+-----------------------------------------------------------------------+
|SU2 binary restart                 |restart_flow_databladeVALIDATION_Blade_21.dat|
|                                   |                     (13139.6 MB/s)|
|Paraview                           |volume_flow_databladeVALIDATION_Blade_21.vtu|
|                                   |                     (885.799 MB/s)|
|Paraview surface                   |surface_flowdatabladeVALIDATION_Blade_21.vtu|
|                                   |                     (92.5154 MB/s)|
|SU2 ASCII restart                  |restart_flow_databladeVALIDATION_Blade_21.csv|
|                                   |                     (20.7974 MB/s)|
|CSV file                           |surface_flowdatabladeVALIDATION_Blade_21.csv|
|                                   |                     (20.1617 MB/s)|
+-----------------------------------------------------------------------+
+--------------------------------------+
|  Inner_Iter|   Time(sec)|    rms[Rho]|
+--------------------------------------+
|         210|  1.1449e-01|   -3.078350|
|         220|  1.1198e-01|   -3.088722|
|         230|  1.1028e-01|   -3.069297|
|         240|  1.0871e-01|   -3.048575|
|         250|  1.0673e-01|   -3.042920|
+-----------------------------------------------------------------------+
|        File Writing Summary       |              Filename             |
+-----------------------------------------------------------------------+
|SU2 binary restart                 |restart_flow_databladeVALIDATION_Blade_21.dat|
|                                   |                     (12373.8 MB/s)|
|Paraview                           |volume_flow_databladeVALIDATION_Blade_21.vtu|
|                                   |                     (562.934 MB/s)|
|Paraview surface                   |surface_flowdatabladeVALIDATION_Blade_21.vtu|
|                                   |                     (28.5225 MB/s)|
|SU2 ASCII restart                  |restart_flow_databladeVALIDATION_Blade_21.csv|
|                                   |                     (21.3021 MB/s)|
|CSV file                           |surface_flowdatabladeVALIDATION_Blade_21.csv|
|                                   |                     (21.0364 MB/s)|
+-----------------------------------------------------------------------+
+--------------------------------------+
|  Inner_Iter|   Time(sec)|    rms[Rho]|
+--------------------------------------+
|         260|  1.1482e-01|   -3.107020|
|         270|  1.1424e-01|   -3.070884|
|         280|  1.1297e-01|   -3.195579|
|         290|  1.1206e-01|   -3.170278|
|         300|  1.1160e-01|   -3.173216|
+-----------------------------------------------------------------------+
|        File Writing Summary       |              Filename             |
+-----------------------------------------------------------------------+
|SU2 binary restart                 |restart_flow_databladeVALIDATION_Blade_21.dat|
|                                   |                     (10520.9 MB/s)|
|Paraview                           |volume_flow_databladeVALIDATION_Blade_21.vtu|
|                                   |                     (498.323 MB/s)|
|Paraview surface                   |surface_flowdatabladeVALIDATION_Blade_21.vtu|
|                                   |                     (30.4705 MB/s)|
|SU2 ASCII restart                  |restart_flow_databladeVALIDATION_Blade_21.csv|
|                                   |                     (20.1083 MB/s)|
|CSV file                           |surface_flowdatabladeVALIDATION_Blade_21.csv|
|                                   |                     (20.2658 MB/s)|
+-----------------------------------------------------------------------+
+--------------------------------------+
|  Inner_Iter|   Time(sec)|    rms[Rho]|
+--------------------------------------+
|         310|  1.1830e-01|   -3.259950|
|         320|  1.1686e-01|   -3.344469|
|         330|  1.1546e-01|   -3.352124|
|         340|  1.1403e-01|   -3.359908|
|         350|  1.1263e-01|   -3.370541|
+-----------------------------------------------------------------------+
|        File Writing Summary       |              Filename             |
+-----------------------------------------------------------------------+
|SU2 binary restart                 |restart_flow_databladeVALIDATION_Blade_21.dat|
|                                   |                     (10689.7 MB/s)|
|Paraview                           |volume_flow_databladeVALIDATION_Blade_21.vtu|
|                                   |                     (247.108 MB/s)|
|Paraview surface                   |surface_flowdatabladeVALIDATION_Blade_21.vtu|
|                                   |                     (62.4769 MB/s)|
|SU2 ASCII restart                  |restart_flow_databladeVALIDATION_Blade_21.csv|
|                                   |                     (21.0053 MB/s)|
|CSV file                           |surface_flowdatabladeVALIDATION_Blade_21.csv|
|                                   |                     (20.9525 MB/s)|
+-----------------------------------------------------------------------+
+--------------------------------------+
|  Inner_Iter|   Time(sec)|    rms[Rho]|
+--------------------------------------+
|         360|  1.1778e-01|   -3.392905|
|         370|  1.1650e-01|   -3.397594|
|         380|  1.1575e-01|   -3.370369|
|         390|  1.1435e-01|   -3.453883|
|         400|  1.1335e-01|   -3.382872|
+-----------------------------------------------------------------------+
|        File Writing Summary       |              Filename             |
+-----------------------------------------------------------------------+
|SU2 binary restart                 |restart_flow_databladeVALIDATION_Blade_21.dat|
|                                   |                     (13586.1 MB/s)|
|Paraview                           |volume_flow_databladeVALIDATION_Blade_21.vtu|
|                                   |                     (897.238 MB/s)|
|Paraview surface                   |surface_flowdatabladeVALIDATION_Blade_21.vtu|
|                                   |                      (80.755 MB/s)|
|SU2 ASCII restart                  |restart_flow_databladeVALIDATION_Blade_21.csv|
|                                   |                     (20.4164 MB/s)|
|CSV file                           |surface_flowdatabladeVALIDATION_Blade_21.csv|
|                                   |                     (21.3681 MB/s)|
+-----------------------------------------------------------------------+
+--------------------------------------+
|  Inner_Iter|   Time(sec)|    rms[Rho]|
+--------------------------------------+
|         410|  1.1825e-01|   -3.436583|
|         420|  1.1695e-01|   -3.551563|
|         430|  1.1583e-01|   -3.557022|
|         440|  1.1502e-01|   -3.469227|
|         450|  1.1407e-01|   -3.544414|
+-----------------------------------------------------------------------+
|        File Writing Summary       |              Filename             |
+-----------------------------------------------------------------------+
|SU2 binary restart                 |restart_flow_databladeVALIDATION_Blade_21.dat|
|                                   |                     (13317.8 MB/s)|
|Paraview                           |volume_flow_databladeVALIDATION_Blade_21.vtu|
|                                   |                     (1042.01 MB/s)|
|Paraview surface                   |surface_flowdatabladeVALIDATION_Blade_21.vtu|
|                                   |                     (87.0787 MB/s)|
|SU2 ASCII restart                  |restart_flow_databladeVALIDATION_Blade_21.csv|
|                                   |                     (21.3485 MB/s)|
|CSV file                           |surface_flowdatabladeVALIDATION_Blade_21.csv|
|                                   |                     (20.6817 MB/s)|
+-----------------------------------------------------------------------+
+--------------------------------------+
|  Inner_Iter|   Time(sec)|    rms[Rho]|
+--------------------------------------+
|         460|  1.1797e-01|   -3.600590|
|         470|  1.1726e-01|   -3.600430|
|         480|  1.1745e-01|   -3.483269|
|         490|  1.1726e-01|   -3.533002|
|         500|  1.1568e-01|   -3.551393|
+-----------------------------------------------------------------------+
|        File Writing Summary       |              Filename             |
+-----------------------------------------------------------------------+
|SU2 binary restart                 |restart_flow_databladeVALIDATION_Blade_21.dat|
|                                   |                     (12239.8 MB/s)|
|Paraview                           |volume_flow_databladeVALIDATION_Blade_21.vtu|
|                                   |                     (983.395 MB/s)|
|Paraview surface                   |surface_flowdatabladeVALIDATION_Blade_21.vtu|
|                                   |                     (95.1969 MB/s)|
|SU2 ASCII restart                  |restart_flow_databladeVALIDATION_Blade_21.csv|
|                                   |                     (20.8944 MB/s)|
|CSV file                           |surface_flowdatabladeVALIDATION_Blade_21.csv|
|                                   |                     (20.5416 MB/s)|
+-----------------------------------------------------------------------+
+--------------------------------------+
|  Inner_Iter|   Time(sec)|    rms[Rho]|
+--------------------------------------+
|         510|  1.1881e-01|   -3.598339|
|         520|  1.1742e-01|   -3.640612|
|         530|  1.1645e-01|   -3.605632|
|         540|  1.1548e-01|   -3.663459|
|         550|  1.1447e-01|   -3.718262|
+-----------------------------------------------------------------------+
|        File Writing Summary       |              Filename             |
+-----------------------------------------------------------------------+
|SU2 binary restart                 |restart_flow_databladeVALIDATION_Blade_21.dat|
|                                   |                     (14068.8 MB/s)|
|Paraview                           |volume_flow_databladeVALIDATION_Blade_21.vtu|
|                                   |                     (980.996 MB/s)|
|Paraview surface                   |surface_flowdatabladeVALIDATION_Blade_21.vtu|
|                                   |                     (102.524 MB/s)|
|SU2 ASCII restart                  |restart_flow_databladeVALIDATION_Blade_21.csv|
|                                   |                     (21.4274 MB/s)|
|CSV file                           |surface_flowdatabladeVALIDATION_Blade_21.csv|
|                                   |                     (18.4751 MB/s)|
+-----------------------------------------------------------------------+
+--------------------------------------+
|  Inner_Iter|   Time(sec)|    rms[Rho]|
+--------------------------------------+
|         560|  1.1783e-01|   -3.682899|
|         570|  1.1699e-01|   -3.720161|
|         580|  1.1600e-01|   -3.807444|
|         590|  1.1512e-01|   -3.827650|
|         600|  1.1435e-01|   -3.806986|
+-----------------------------------------------------------------------+
|        File Writing Summary       |              Filename             |
+-----------------------------------------------------------------------+
|SU2 binary restart                 |restart_flow_databladeVALIDATION_Blade_21.dat|
|                                   |                     (13064.2 MB/s)|
|Paraview                           |volume_flow_databladeVALIDATION_Blade_21.vtu|
|                                   |                     (1035.55 MB/s)|
|Paraview surface                   |surface_flowdatabladeVALIDATION_Blade_21.vtu|
|                                   |                     (93.5167 MB/s)|
|SU2 ASCII restart                  |restart_flow_databladeVALIDATION_Blade_21.csv|
|                                   |                     (21.8291 MB/s)|
|CSV file                           |surface_flowdatabladeVALIDATION_Blade_21.csv|
|                                   |                     (22.6898 MB/s)|
+-----------------------------------------------------------------------+
+--------------------------------------+
|  Inner_Iter|   Time(sec)|    rms[Rho]|
+--------------------------------------+
|         610|  1.1733e-01|   -3.825923|
|         620|  1.1645e-01|   -3.874460|
|         630|  1.1559e-01|   -3.878087|
|         640|  1.1486e-01|   -3.817915|
|         650|  1.1410e-01|   -3.874066|
+-----------------------------------------------------------------------+
|        File Writing Summary       |              Filename             |
+-----------------------------------------------------------------------+
|SU2 binary restart                 |restart_flow_databladeVALIDATION_Blade_21.dat|
|                                   |                     (12653.7 MB/s)|
|Paraview                           |volume_flow_databladeVALIDATION_Blade_21.vtu|
|                                   |                     (1235.71 MB/s)|
|Paraview surface                   |surface_flowdatabladeVALIDATION_Blade_21.vtu|
|                                   |                     (92.1547 MB/s)|
|SU2 ASCII restart                  |restart_flow_databladeVALIDATION_Blade_21.csv|
|                                   |                     (20.3836 MB/s)|
|CSV file                           |surface_flowdatabladeVALIDATION_Blade_21.csv|
|                                   |                     (19.9013 MB/s)|
+-----------------------------------------------------------------------+
+--------------------------------------+
|  Inner_Iter|   Time(sec)|    rms[Rho]|
+--------------------------------------+
|         660|  1.1698e-01|   -3.927814|
|         670|  1.1619e-01|   -3.905929|
|         680|  1.1550e-01|   -3.833738|
|         690|  1.1477e-01|   -3.918855|
|         700|  1.1400e-01|   -3.947506|
+-----------------------------------------------------------------------+
|        File Writing Summary       |              Filename             |
+-----------------------------------------------------------------------+
|SU2 binary restart                 |restart_flow_databladeVALIDATION_Blade_21.dat|
|                                   |                     (13321.1 MB/s)|
|Paraview                           |volume_flow_databladeVALIDATION_Blade_21.vtu|
|                                   |                     (996.704 MB/s)|
|Paraview surface                   |surface_flowdatabladeVALIDATION_Blade_21.vtu|
|                                   |                     (102.073 MB/s)|
|SU2 ASCII restart                  |restart_flow_databladeVALIDATION_Blade_21.csv|
|                                   |                     (21.5658 MB/s)|
|CSV file                           |surface_flowdatabladeVALIDATION_Blade_21.csv|
|                                   |                     (23.0708 MB/s)|
+-----------------------------------------------------------------------+
+--------------------------------------+
|  Inner_Iter|   Time(sec)|    rms[Rho]|
+--------------------------------------+
|         710|  1.1655e-01|   -3.932658|
|         720|  1.1597e-01|   -3.921247|
|         730|  1.1529e-01|   -3.995037|
|         740|  1.1461e-01|   -4.015011|
|         750|  1.1401e-01|   -3.961461|
+-----------------------------------------------------------------------+
|        File Writing Summary       |              Filename             |
+-----------------------------------------------------------------------+
|SU2 binary restart                 |restart_flow_databladeVALIDATION_Blade_21.dat|
|                                   |                     (12908.8 MB/s)|
|Paraview                           |volume_flow_databladeVALIDATION_Blade_21.vtu|
|                                   |                     (1101.38 MB/s)|
|Paraview surface                   |surface_flowdatabladeVALIDATION_Blade_21.vtu|
|                                   |                     (105.735 MB/s)|
|SU2 ASCII restart                  |restart_flow_databladeVALIDATION_Blade_21.csv|
|                                   |                     (21.3607 MB/s)|
|CSV file                           |surface_flowdatabladeVALIDATION_Blade_21.csv|
|                                   |                     (20.7326 MB/s)|
+-----------------------------------------------------------------------+
+--------------------------------------+
|  Inner_Iter|   Time(sec)|    rms[Rho]|
+--------------------------------------+
|         760|  1.1654e-01|   -3.979044|
|         770|  1.1592e-01|   -4.027657|
|         780|  1.1535e-01|   -4.032874|
|         790|  1.1483e-01|   -4.004532|
|         800|  1.1415e-01|   -4.101828|
+-----------------------------------------------------------------------+
|        File Writing Summary       |              Filename             |
+-----------------------------------------------------------------------+
|SU2 binary restart                 |restart_flow_databladeVALIDATION_Blade_21.dat|
|                                   |                     (11747.7 MB/s)|
|Paraview                           |volume_flow_databladeVALIDATION_Blade_21.vtu|
|                                   |                     (794.944 MB/s)|
|Paraview surface                   |surface_flowdatabladeVALIDATION_Blade_21.vtu|
|                                   |                     (84.9882 MB/s)|
|SU2 ASCII restart                  |restart_flow_databladeVALIDATION_Blade_21.csv|
|                                   |                     (20.9114 MB/s)|
|CSV file                           |surface_flowdatabladeVALIDATION_Blade_21.csv|
|                                   |                     (20.5721 MB/s)|
+-----------------------------------------------------------------------+
+--------------------------------------+
|  Inner_Iter|   Time(sec)|    rms[Rho]|
+--------------------------------------+
|         810|  1.1652e-01|   -4.103708|
|         820|  1.1604e-01|   -4.058936|
|         830|  1.1563e-01|   -4.095253|
|         840|  1.1525e-01|   -4.124353|
|         850|  1.1463e-01|   -4.242055|
+-----------------------------------------------------------------------+
|        File Writing Summary       |              Filename             |
+-----------------------------------------------------------------------+
|SU2 binary restart                 |restart_flow_databladeVALIDATION_Blade_21.dat|
|                                   |                     (11967.3 MB/s)|
|Paraview                           |volume_flow_databladeVALIDATION_Blade_21.vtu|
|                                   |                     (977.214 MB/s)|
|Paraview surface                   |surface_flowdatabladeVALIDATION_Blade_21.vtu|
|                                   |                     (91.1823 MB/s)|
|SU2 ASCII restart                  |restart_flow_databladeVALIDATION_Blade_21.csv|
|                                   |                     (21.1913 MB/s)|
|CSV file                           |surface_flowdatabladeVALIDATION_Blade_21.csv|
|                                   |                     (20.0885 MB/s)|
+-----------------------------------------------------------------------+
+--------------------------------------+
|  Inner_Iter|   Time(sec)|    rms[Rho]|
+--------------------------------------+
|         860|  1.1677e-01|   -4.255556|
|         870|  1.1628e-01|   -4.134664|
|         880|  1.1572e-01|   -4.267627|
|         890|  1.1511e-01|   -4.278671|
|         900|  1.1458e-01|   -4.231049|
+-----------------------------------------------------------------------+
|        File Writing Summary       |              Filename             |
+-----------------------------------------------------------------------+
|SU2 binary restart                 |restart_flow_databladeVALIDATION_Blade_21.dat|
|                                   |                     (12890.5 MB/s)|
|Paraview                           |volume_flow_databladeVALIDATION_Blade_21.vtu|
|                                   |                     (1036.87 MB/s)|
|Paraview surface                   |surface_flowdatabladeVALIDATION_Blade_21.vtu|
|                                   |                     (86.5069 MB/s)|
|SU2 ASCII restart                  |restart_flow_databladeVALIDATION_Blade_21.csv|
|                                   |                     (20.9243 MB/s)|
|CSV file                           |surface_flowdatabladeVALIDATION_Blade_21.csv|
|                                   |                     (18.6342 MB/s)|
+-----------------------------------------------------------------------+
+--------------------------------------+
|  Inner_Iter|   Time(sec)|    rms[Rho]|
+--------------------------------------+
|         910|  1.1679e-01|   -4.186820|
|         920|  1.1633e-01|   -4.309356|
|         930|  1.1597e-01|   -4.331105|
|         940|  1.1554e-01|   -4.225329|
|         950|  1.1516e-01|   -4.316963|
+-----------------------------------------------------------------------+
|        File Writing Summary       |              Filename             |
+-----------------------------------------------------------------------+
|SU2 binary restart                 |restart_flow_databladeVALIDATION_Blade_21.dat|
|                                   |                     (11068.7 MB/s)|
|Paraview                           |volume_flow_databladeVALIDATION_Blade_21.vtu|
|                                   |                     (767.344 MB/s)|
|Paraview surface                   |surface_flowdatabladeVALIDATION_Blade_21.vtu|
|                                   |                     (71.7881 MB/s)|
|SU2 ASCII restart                  |restart_flow_databladeVALIDATION_Blade_21.csv|
|                                   |                     (20.7683 MB/s)|
|CSV file                           |surface_flowdatabladeVALIDATION_Blade_21.csv|
|                                   |                     (22.2975 MB/s)|
+-----------------------------------------------------------------------+
+--------------------------------------+
|  Inner_Iter|   Time(sec)|    rms[Rho]|
+--------------------------------------+
|         960|  1.1707e-01|   -4.360728|
|         970|  1.1656e-01|   -4.340145|
|         980|  1.1614e-01|   -4.274337|
|         990|  1.1559e-01|   -4.416814|
|        1000|  1.1507e-01|   -4.435894|
+-----------------------------------------------------------------------+
|        File Writing Summary       |              Filename             |
+-----------------------------------------------------------------------+
|SU2 binary restart                 |restart_flow_databladeVALIDATION_Blade_21.dat|
|                                   |                     (13742.1 MB/s)|
|Paraview                           |volume_flow_databladeVALIDATION_Blade_21.vtu|
|                                   |                     (1008.19 MB/s)|
|Paraview surface                   |surface_flowdatabladeVALIDATION_Blade_21.vtu|
|                                   |                     (123.767 MB/s)|
|SU2 ASCII restart                  |restart_flow_databladeVALIDATION_Blade_21.csv|
|                                   |                     (21.0865 MB/s)|
|CSV file                           |surface_flowdatabladeVALIDATION_Blade_21.csv|
|                                   |                     (20.5713 MB/s)|
+-----------------------------------------------------------------------+
+--------------------------------------+
|  Inner_Iter|   Time(sec)|    rms[Rho]|
+--------------------------------------+
|        1010|  1.1697e-01|   -4.365502|
|        1020|  1.1654e-01|   -4.410981|
|        1030|  1.1611e-01|   -4.486544|
|        1040|  1.1568e-01|   -4.467706|
|        1050|  1.1534e-01|   -4.382413|
+-----------------------------------------------------------------------+
|        File Writing Summary       |              Filename             |
+-----------------------------------------------------------------------+
|SU2 binary restart                 |restart_flow_databladeVALIDATION_Blade_21.dat|
|                                   |                     (10838.1 MB/s)|
|Paraview                           |volume_flow_databladeVALIDATION_Blade_21.vtu|
|                                   |                     (985.449 MB/s)|
|Paraview surface                   |surface_flowdatabladeVALIDATION_Blade_21.vtu|
|                                   |                      (124.98 MB/s)|
|SU2 ASCII restart                  |restart_flow_databladeVALIDATION_Blade_21.csv|
|                                   |                     (20.8786 MB/s)|
|CSV file                           |surface_flowdatabladeVALIDATION_Blade_21.csv|
|                                   |                     (21.0439 MB/s)|
+-----------------------------------------------------------------------+
+--------------------------------------+
|  Inner_Iter|   Time(sec)|    rms[Rho]|
+--------------------------------------+
|        1060|  1.1717e-01|   -4.466453|
|        1070|  1.1666e-01|   -4.516293|
|        1080|  1.1622e-01|   -4.492182|
|        1090|  1.1587e-01|   -4.425200|
|        1100|  1.1543e-01|   -4.554422|
+-----------------------------------------------------------------------+
|        File Writing Summary       |              Filename             |
+-----------------------------------------------------------------------+
|SU2 binary restart                 |restart_flow_databladeVALIDATION_Blade_21.dat|
|                                   |                      (9845.4 MB/s)|
|Paraview                           |volume_flow_databladeVALIDATION_Blade_21.vtu|
|                                   |                     (1027.06 MB/s)|
|Paraview surface                   |surface_flowdatabladeVALIDATION_Blade_21.vtu|
|                                   |                     (116.709 MB/s)|
|SU2 ASCII restart                  |restart_flow_databladeVALIDATION_Blade_21.csv|
|                                   |                     (21.0485 MB/s)|
|CSV file                           |surface_flowdatabladeVALIDATION_Blade_21.csv|
|                                   |                     (19.8069 MB/s)|
+-----------------------------------------------------------------------+
+--------------------------------------+
|  Inner_Iter|   Time(sec)|    rms[Rho]|
+--------------------------------------+
|        1110|  1.1708e-01|   -4.562629|
|        1120|  1.1669e-01|   -4.495885|
|        1130|  1.1627e-01|   -4.530309|
|        1140|  1.1581e-01|   -4.569328|
|        1150|  1.1537e-01|   -4.547059|
+-----------------------------------------------------------------------+
|        File Writing Summary       |              Filename             |
+-----------------------------------------------------------------------+
|SU2 binary restart                 |restart_flow_databladeVALIDATION_Blade_21.dat|
|                                   |                     (5201.54 MB/s)|
|Paraview                           |volume_flow_databladeVALIDATION_Blade_21.vtu|
|                                   |                      (1150.9 MB/s)|
|Paraview surface                   |surface_flowdatabladeVALIDATION_Blade_21.vtu|
|                                   |                     (70.1096 MB/s)|
|SU2 ASCII restart                  |restart_flow_databladeVALIDATION_Blade_21.csv|
|                                   |                     (21.2614 MB/s)|
|CSV file                           |surface_flowdatabladeVALIDATION_Blade_21.csv|
|                                   |                     (19.9186 MB/s)|
+-----------------------------------------------------------------------+
+--------------------------------------+
|  Inner_Iter|   Time(sec)|    rms[Rho]|
+--------------------------------------+
|        1160|  1.1706e-01|   -4.504362|
|        1170|  1.1659e-01|   -4.625092|
|        1180|  1.1619e-01|   -4.572430|
|        1190|  1.1581e-01|   -4.537198|
|        1200|  1.1537e-01|   -4.641481|
+-----------------------------------------------------------------------+
|        File Writing Summary       |              Filename             |
+-----------------------------------------------------------------------+
|SU2 binary restart                 |restart_flow_databladeVALIDATION_Blade_21.dat|
|                                   |                     (12511.7 MB/s)|
|Paraview                           |volume_flow_databladeVALIDATION_Blade_21.vtu|
|                                   |                     (1053.43 MB/s)|
|Paraview surface                   |surface_flowdatabladeVALIDATION_Blade_21.vtu|
|                                   |                     (101.638 MB/s)|
|SU2 ASCII restart                  |restart_flow_databladeVALIDATION_Blade_21.csv|
|                                   |                     (21.1589 MB/s)|
|CSV file                           |surface_flowdatabladeVALIDATION_Blade_21.csv|
|                                   |                     (20.1274 MB/s)|
+-----------------------------------------------------------------------+
+--------------------------------------+
|  Inner_Iter|   Time(sec)|    rms[Rho]|
+--------------------------------------+
|        1210|  1.1689e-01|   -4.641321|
|        1220|  1.1647e-01|   -4.619964|
|        1230|  1.1615e-01|   -4.594497|
|        1240|  1.1570e-01|   -4.702218|
|        1250|  1.1533e-01|   -4.670422|
+-----------------------------------------------------------------------+
|        File Writing Summary       |              Filename             |
+-----------------------------------------------------------------------+
|SU2 binary restart                 |restart_flow_databladeVALIDATION_Blade_21.dat|
|                                   |                     (5004.15 MB/s)|
|Paraview                           |volume_flow_databladeVALIDATION_Blade_21.vtu|
|                                   |                     (1139.86 MB/s)|
|Paraview surface                   |surface_flowdatabladeVALIDATION_Blade_21.vtu|
|                                   |                     (103.448 MB/s)|
|SU2 ASCII restart                  |restart_flow_databladeVALIDATION_Blade_21.csv|
|                                   |                     (21.2931 MB/s)|
|CSV file                           |surface_flowdatabladeVALIDATION_Blade_21.csv|
|                                   |                     (20.5985 MB/s)|
+-----------------------------------------------------------------------+
+--------------------------------------+
|  Inner_Iter|   Time(sec)|    rms[Rho]|
+--------------------------------------+
|        1260|  1.1685e-01|   -4.627555|
|        1270|  1.1644e-01|   -4.697890|
|        1280|  1.1601e-01|   -4.722715|
|        1290|  1.1562e-01|   -4.715167|
|        1300|  1.1528e-01|   -4.637192|
+-----------------------------------------------------------------------+
|        File Writing Summary       |              Filename             |
+-----------------------------------------------------------------------+
|SU2 binary restart                 |restart_flow_databladeVALIDATION_Blade_21.dat|
|                                   |                     (12437.7 MB/s)|
|Paraview                           |volume_flow_databladeVALIDATION_Blade_21.vtu|
|                                   |                     (1084.45 MB/s)|
|Paraview surface                   |surface_flowdatabladeVALIDATION_Blade_21.vtu|
|                                   |                     (87.0535 MB/s)|
|SU2 ASCII restart                  |restart_flow_databladeVALIDATION_Blade_21.csv|
|                                   |                     (21.4859 MB/s)|
|CSV file                           |surface_flowdatabladeVALIDATION_Blade_21.csv|
|                                   |                     (19.7805 MB/s)|
+-----------------------------------------------------------------------+
+--------------------------------------+
|  Inner_Iter|   Time(sec)|    rms[Rho]|
+--------------------------------------+
|        1310|  1.1665e-01|   -4.768158|
|        1320|  1.1624e-01|   -4.780906|
|        1330|  1.1595e-01|   -4.674561|
|        1340|  1.1568e-01|   -4.706946|
|        1350|  1.1542e-01|   -4.735124|
+-----------------------------------------------------------------------+
|        File Writing Summary       |              Filename             |
+-----------------------------------------------------------------------+
|SU2 binary restart                 |restart_flow_databladeVALIDATION_Blade_21.dat|
|                                   |                      (8507.6 MB/s)|
|Paraview                           |volume_flow_databladeVALIDATION_Blade_21.vtu|
|                                   |                     (1089.68 MB/s)|
|Paraview surface                   |surface_flowdatabladeVALIDATION_Blade_21.vtu|
|                                   |                     (87.8081 MB/s)|
|SU2 ASCII restart                  |restart_flow_databladeVALIDATION_Blade_21.csv|
|                                   |                     (21.1294 MB/s)|
|CSV file                           |surface_flowdatabladeVALIDATION_Blade_21.csv|
|                                   |                     (22.2847 MB/s)|
+-----------------------------------------------------------------------+
+--------------------------------------+
|  Inner_Iter|   Time(sec)|    rms[Rho]|
+--------------------------------------+
|        1360|  1.1689e-01|   -4.799365|
|        1370|  1.1663e-01|   -4.809710|
|        1380|  1.1636e-01|   -4.819824|
|        1390|  1.1610e-01|   -4.863443|
|        1400|  1.1573e-01|   -4.995727|
+-----------------------------------------------------------------------+
|        File Writing Summary       |              Filename             |
+-----------------------------------------------------------------------+
|SU2 binary restart                 |restart_flow_databladeVALIDATION_Blade_21.dat|
|                                   |                     (12765.1 MB/s)|
|Paraview                           |volume_flow_databladeVALIDATION_Blade_21.vtu|
|                                   |                     (1005.67 MB/s)|
|Paraview surface                   |surface_flowdatabladeVALIDATION_Blade_21.vtu|
|                                   |                     (97.0048 MB/s)|
|SU2 ASCII restart                  |restart_flow_databladeVALIDATION_Blade_21.csv|
|                                   |                     (21.1614 MB/s)|
|CSV file                           |surface_flowdatabladeVALIDATION_Blade_21.csv|
|                                   |                     (21.1637 MB/s)|
+-----------------------------------------------------------------------+
+--------------------------------------+
|  Inner_Iter|   Time(sec)|    rms[Rho]|
+--------------------------------------+
|        1410|  1.1705e-01|   -4.954014|
|        1420|  1.1681e-01|   -4.928313|
|        1430|  1.1643e-01|   -5.041969|
|        1440|  1.1608e-01|   -5.031599|
|        1450|  1.1575e-01|   -4.944893|
+-----------------------------------------------------------------------+
|        File Writing Summary       |              Filename             |
+-----------------------------------------------------------------------+
|SU2 binary restart                 |restart_flow_databladeVALIDATION_Blade_21.dat|
|                                   |                     (11409.2 MB/s)|
|Paraview                           |volume_flow_databladeVALIDATION_Blade_21.vtu|
|                                   |                     (1181.58 MB/s)|
|Paraview surface                   |surface_flowdatabladeVALIDATION_Blade_21.vtu|
|                                   |                      (93.976 MB/s)|
|SU2 ASCII restart                  |restart_flow_databladeVALIDATION_Blade_21.csv|
|                                   |                     (21.1351 MB/s)|
|CSV file                           |surface_flowdatabladeVALIDATION_Blade_21.csv|
|                                   |                       (20.31 MB/s)|
+-----------------------------------------------------------------------+
+--------------------------------------+
|  Inner_Iter|   Time(sec)|    rms[Rho]|
+--------------------------------------+
|        1460|  1.1703e-01|   -5.033654|
|        1470|  1.1665e-01|   -5.079627|
|        1480|  1.1630e-01|   -5.052033|
|        1490|  1.1603e-01|   -4.982032|
|        1500|  1.1566e-01|   -5.094009|
+-----------------------------------------------------------------------+
|        File Writing Summary       |              Filename             |
+-----------------------------------------------------------------------+
|SU2 binary restart                 |restart_flow_databladeVALIDATION_Blade_21.dat|
|                                   |                     (12755.1 MB/s)|
|Paraview                           |volume_flow_databladeVALIDATION_Blade_21.vtu|
|                                   |                     (960.547 MB/s)|
|Paraview surface                   |surface_flowdatabladeVALIDATION_Blade_21.vtu|
|                                   |                     (95.0018 MB/s)|
|SU2 ASCII restart                  |restart_flow_databladeVALIDATION_Blade_21.csv|
|                                   |                     (20.7281 MB/s)|
|CSV file                           |surface_flowdatabladeVALIDATION_Blade_21.csv|
|                                   |                     (19.3145 MB/s)|
+-----------------------------------------------------------------------+
+--------------------------------------+
|  Inner_Iter|   Time(sec)|    rms[Rho]|
+--------------------------------------+
|        1510|  1.1694e-01|   -5.087340|
|        1520|  1.1669e-01|   -5.026481|
|        1530|  1.1640e-01|   -5.072050|
|        1540|  1.1622e-01|   -5.081026|
|        1550|  1.1600e-01|   -5.079683|
+-----------------------------------------------------------------------+
|        File Writing Summary       |              Filename             |
+-----------------------------------------------------------------------+
|SU2 binary restart                 |restart_flow_databladeVALIDATION_Blade_21.dat|
|                                   |                     (12557.7 MB/s)|
|Paraview                           |volume_flow_databladeVALIDATION_Blade_21.vtu|
|                                   |                     (1043.32 MB/s)|
|Paraview surface                   |surface_flowdatabladeVALIDATION_Blade_21.vtu|
|                                   |                     (95.6804 MB/s)|
|SU2 ASCII restart                  |restart_flow_databladeVALIDATION_Blade_21.csv|
|                                   |                     (21.6505 MB/s)|
|CSV file                           |surface_flowdatabladeVALIDATION_Blade_21.csv|
|                                   |                     (20.6094 MB/s)|
+-----------------------------------------------------------------------+
+--------------------------------------+
|  Inner_Iter|   Time(sec)|    rms[Rho]|
+--------------------------------------+
|        1560|  1.1721e-01|   -5.127618|
|        1570|  1.1685e-01|   -5.160438|
|        1580|  1.1653e-01|   -5.151635|
|        1590|  1.1626e-01|   -5.135416|
|        1600|  1.1597e-01|   -5.219135|
+-----------------------------------------------------------------------+
|        File Writing Summary       |              Filename             |
+-----------------------------------------------------------------------+
|SU2 binary restart                 |restart_flow_databladeVALIDATION_Blade_21.dat|
|                                   |                     (7928.99 MB/s)|
|Paraview                           |volume_flow_databladeVALIDATION_Blade_21.vtu|
|                                   |                      (1014.4 MB/s)|
|Paraview surface                   |surface_flowdatabladeVALIDATION_Blade_21.vtu|
|                                   |                     (90.2876 MB/s)|
|SU2 ASCII restart                  |restart_flow_databladeVALIDATION_Blade_21.csv|
|                                   |                     (20.5423 MB/s)|
|CSV file                           |surface_flowdatabladeVALIDATION_Blade_21.csv|
|                                   |                      (21.522 MB/s)|
+-----------------------------------------------------------------------+
+--------------------------------------+
|  Inner_Iter|   Time(sec)|    rms[Rho]|
+--------------------------------------+
|        1610|  1.1715e-01|   -5.233876|
|        1620|  1.1691e-01|   -5.120895|
|        1630|  1.1664e-01|   -5.195393|
|        1640|  1.1630e-01|   -5.238644|
|        1650|  1.1602e-01|   -5.214043|
+-----------------------------------------------------------------------+
|        File Writing Summary       |              Filename             |
+-----------------------------------------------------------------------+
|SU2 binary restart                 |restart_flow_databladeVALIDATION_Blade_21.dat|
|                                   |                     (2100.52 MB/s)|
|Paraview                           |volume_flow_databladeVALIDATION_Blade_21.vtu|
|                                   |                     (870.581 MB/s)|
|Paraview surface                   |surface_flowdatabladeVALIDATION_Blade_21.vtu|
|                                   |                     (67.1287 MB/s)|
|SU2 ASCII restart                  |restart_flow_databladeVALIDATION_Blade_21.csv|
|                                   |                     (20.3403 MB/s)|
|CSV file                           |surface_flowdatabladeVALIDATION_Blade_21.csv|
|                                   |                     (20.9548 MB/s)|
+-----------------------------------------------------------------------+
+--------------------------------------+
|  Inner_Iter|   Time(sec)|    rms[Rho]|
+--------------------------------------+
|        1660|  1.1727e-01|   -5.165895|
|        1670|  1.1709e-01|   -5.220262|
|        1680|  1.1690e-01|   -5.252088|
|        1690|  1.1670e-01|   -5.261787|
|        1700|  1.1643e-01|   -5.341349|
+-----------------------------------------------------------------------+
|        File Writing Summary       |              Filename             |
+-----------------------------------------------------------------------+
|SU2 binary restart                 |restart_flow_databladeVALIDATION_Blade_21.dat|
|                                   |                     (12865.2 MB/s)|
|Paraview                           |volume_flow_databladeVALIDATION_Blade_21.vtu|
|                                   |                      (940.68 MB/s)|
|Paraview surface                   |surface_flowdatabladeVALIDATION_Blade_21.vtu|
|                                   |                     (82.3437 MB/s)|
|SU2 ASCII restart                  |restart_flow_databladeVALIDATION_Blade_21.csv|
|                                   |                      (20.438 MB/s)|
|CSV file                           |surface_flowdatabladeVALIDATION_Blade_21.csv|
|                                   |                     (18.6986 MB/s)|
+-----------------------------------------------------------------------+
+--------------------------------------+
|  Inner_Iter|   Time(sec)|    rms[Rho]|
+--------------------------------------+
|        1710|  1.1757e-01|   -5.334934|
|        1720|  1.1730e-01|   -5.301747|
|        1730|  1.1703e-01|   -5.332276|
|        1740|  1.1671e-01|   -5.382530|
|        1750|  1.1644e-01|   -5.334585|
+-----------------------------------------------------------------------+
|        File Writing Summary       |              Filename             |
+-----------------------------------------------------------------------+
|SU2 binary restart                 |restart_flow_databladeVALIDATION_Blade_21.dat|
|                                   |                     (10951.8 MB/s)|
|Paraview                           |volume_flow_databladeVALIDATION_Blade_21.vtu|
|                                   |                     (1077.79 MB/s)|
|Paraview surface                   |surface_flowdatabladeVALIDATION_Blade_21.vtu|
|                                   |                     (106.718 MB/s)|
|SU2 ASCII restart                  |restart_flow_databladeVALIDATION_Blade_21.csv|
|                                   |                      (21.153 MB/s)|
|CSV file                           |surface_flowdatabladeVALIDATION_Blade_21.csv|
|                                   |                     (21.1874 MB/s)|
+-----------------------------------------------------------------------+
+--------------------------------------+
|  Inner_Iter|   Time(sec)|    rms[Rho]|
+--------------------------------------+
|        1760|  1.1751e-01|   -5.307796|
|        1770|  1.1724e-01|   -5.424763|
|        1780|  1.1695e-01|   -5.419531|
|        1790|  1.1675e-01|   -5.301909|
|        1800|  1.1651e-01|   -5.434038|
+-----------------------------------------------------------------------+
|        File Writing Summary       |              Filename             |
+-----------------------------------------------------------------------+
|SU2 binary restart                 |restart_flow_databladeVALIDATION_Blade_21.dat|
|                                   |                     (10473.9 MB/s)|
|Paraview                           |volume_flow_databladeVALIDATION_Blade_21.vtu|
|                                   |                     (959.755 MB/s)|
|Paraview surface                   |surface_flowdatabladeVALIDATION_Blade_21.vtu|
|                                   |                     (92.1794 MB/s)|
|SU2 ASCII restart                  |restart_flow_databladeVALIDATION_Blade_21.csv|
|                                   |                     (19.7483 MB/s)|
|CSV file                           |surface_flowdatabladeVALIDATION_Blade_21.csv|
|                                   |                     (20.1823 MB/s)|
+-----------------------------------------------------------------------+
+--------------------------------------+
|  Inner_Iter|   Time(sec)|    rms[Rho]|
+--------------------------------------+
|        1810|  1.1772e-01|   -5.445318|
|        1820|  1.1755e-01|   -5.399205|
|        1830|  1.1740e-01|   -5.372714|
|        1840|  1.1717e-01|   -5.489793|
|        1850|  1.1692e-01|   -5.490811|
+-----------------------------------------------------------------------+
|        File Writing Summary       |              Filename             |
+-----------------------------------------------------------------------+
|SU2 binary restart                 |restart_flow_databladeVALIDATION_Blade_21.dat|
|                                   |                     (4821.06 MB/s)|
|Paraview                           |volume_flow_databladeVALIDATION_Blade_21.vtu|
|                                   |                     (443.872 MB/s)|
|Paraview surface                   |surface_flowdatabladeVALIDATION_Blade_21.vtu|
|                                   |                     (30.5362 MB/s)|
|SU2 ASCII restart                  |restart_flow_databladeVALIDATION_Blade_21.csv|
|                                   |                     (20.7159 MB/s)|
|CSV file                           |surface_flowdatabladeVALIDATION_Blade_21.csv|
|                                   |                     (18.3354 MB/s)|
+-----------------------------------------------------------------------+
+--------------------------------------+
|  Inner_Iter|   Time(sec)|    rms[Rho]|
+--------------------------------------+
|        1860|  1.1805e-01|   -5.395880|
|        1870|  1.1782e-01|   -5.475629|
|        1880|  1.1758e-01|   -5.486133|
|        1890|  1.1737e-01|   -5.436637|
|        1900|  1.1717e-01|   -5.508746|
+-----------------------------------------------------------------------+
|        File Writing Summary       |              Filename             |
+-----------------------------------------------------------------------+
|SU2 binary restart                 |restart_flow_databladeVALIDATION_Blade_21.dat|
|                                   |                     (9392.39 MB/s)|
|Paraview                           |volume_flow_databladeVALIDATION_Blade_21.vtu|
|                                   |                     (931.532 MB/s)|
|Paraview surface                   |surface_flowdatabladeVALIDATION_Blade_21.vtu|
|                                   |                     (70.9139 MB/s)|
|SU2 ASCII restart                  |restart_flow_databladeVALIDATION_Blade_21.csv|
|                                   |                      (21.008 MB/s)|
|CSV file                           |surface_flowdatabladeVALIDATION_Blade_21.csv|
|                                   |                     (20.3357 MB/s)|
+-----------------------------------------------------------------------+
+--------------------------------------+
|  Inner_Iter|   Time(sec)|    rms[Rho]|
+--------------------------------------+
|        1910|  1.1813e-01|   -5.564159|
|        1920|  1.1790e-01|   -5.564110|
|        1930|  1.1767e-01|   -5.477534|
|        1940|  1.1739e-01|   -5.585220|
|        1950|  1.1714e-01|   -5.549650|
+-----------------------------------------------------------------------+
|        File Writing Summary       |              Filename             |
+-----------------------------------------------------------------------+
|SU2 binary restart                 |restart_flow_databladeVALIDATION_Blade_21.dat|
|                                   |                     (10689.7 MB/s)|
|Paraview                           |volume_flow_databladeVALIDATION_Blade_21.vtu|
|                                   |                     (1095.99 MB/s)|
|Paraview surface                   |surface_flowdatabladeVALIDATION_Blade_21.vtu|
|                                   |                     (107.714 MB/s)|
|SU2 ASCII restart                  |restart_flow_databladeVALIDATION_Blade_21.csv|
|                                   |                     (21.6576 MB/s)|
|CSV file                           |surface_flowdatabladeVALIDATION_Blade_21.csv|
|                                   |                     (20.8772 MB/s)|
+-----------------------------------------------------------------------+
+--------------------------------------+
|  Inner_Iter|   Time(sec)|    rms[Rho]|
+--------------------------------------+
|        1960|  1.1806e-01|   -5.507195|
|        1970|  1.1780e-01|   -5.577272|
|        1980|  1.1753e-01|   -5.633534|
|        1990|  1.1734e-01|   -5.564684|
|        2000|  1.1706e-01|   -5.700902|
+-----------------------------------------------------------------------+
|        File Writing Summary       |              Filename             |
+-----------------------------------------------------------------------+
|SU2 binary restart                 |restart_flow_databladeVALIDATION_Blade_21.dat|
|                                   |                     (12812.9 MB/s)|
|Paraview                           |volume_flow_databladeVALIDATION_Blade_21.vtu|
|                                   |                     (1076.29 MB/s)|
|Paraview surface                   |surface_flowdatabladeVALIDATION_Blade_21.vtu|
|                                   |                     (102.752 MB/s)|
|SU2 ASCII restart                  |restart_flow_databladeVALIDATION_Blade_21.csv|
|                                   |                     (21.0276 MB/s)|
|CSV file                           |surface_flowdatabladeVALIDATION_Blade_21.csv|
|                                   |                     (21.3263 MB/s)|
+-----------------------------------------------------------------------+
+--------------------------------------+
|  Inner_Iter|   Time(sec)|    rms[Rho]|
+--------------------------------------+
|        2010|  1.1798e-01|   -5.654585|
|        2020|  1.1776e-01|   -5.578051|
|        2030|  1.1758e-01|   -5.632210|
|        2040|  1.1731e-01|   -5.745949|
|        2050|  1.1707e-01|   -5.729826|
+-----------------------------------------------------------------------+
|        File Writing Summary       |              Filename             |
+-----------------------------------------------------------------------+
|SU2 binary restart                 |restart_flow_databladeVALIDATION_Blade_21.dat|
|                                   |                       (12775 MB/s)|
|Paraview                           |volume_flow_databladeVALIDATION_Blade_21.vtu|
|                                   |                     (1048.77 MB/s)|
|Paraview surface                   |surface_flowdatabladeVALIDATION_Blade_21.vtu|
|                                   |                     (126.355 MB/s)|
|SU2 ASCII restart                  |restart_flow_databladeVALIDATION_Blade_21.csv|
|                                   |                     (21.0364 MB/s)|
|CSV file                           |surface_flowdatabladeVALIDATION_Blade_21.csv|
|                                   |                     (21.8597 MB/s)|
+-----------------------------------------------------------------------+
+--------------------------------------+
|  Inner_Iter|   Time(sec)|    rms[Rho]|
+--------------------------------------+
|        2060|  1.1802e-01|   -5.655323|
|        2070|  1.1782e-01|   -5.770403|
|        2080|  1.1758e-01|   -5.770299|
|        2090|  1.1738e-01|   -5.716176|
|        2100|  1.1722e-01|   -5.702510|
+-----------------------------------------------------------------------+
|        File Writing Summary       |              Filename             |
+-----------------------------------------------------------------------+
|SU2 binary restart                 |restart_flow_databladeVALIDATION_Blade_21.dat|
|                                   |                     (8787.18 MB/s)|
|Paraview                           |volume_flow_databladeVALIDATION_Blade_21.vtu|
|                                   |                     (1003.46 MB/s)|
|Paraview surface                   |surface_flowdatabladeVALIDATION_Blade_21.vtu|
|                                   |                     (96.7323 MB/s)|
|SU2 ASCII restart                  |restart_flow_databladeVALIDATION_Blade_21.csv|
|                                   |                     (20.9706 MB/s)|
|CSV file                           |surface_flowdatabladeVALIDATION_Blade_21.csv|
|                                   |                     (19.1069 MB/s)|
+-----------------------------------------------------------------------+
+--------------------------------------+
|  Inner_Iter|   Time(sec)|    rms[Rho]|
+--------------------------------------+
|        2110|  1.1808e-01|   -5.795099|
|        2120|  1.1783e-01|   -5.795659|
|        2130|  1.1767e-01|   -5.736176|
|        2140|  1.1745e-01|   -5.838941|
|        2150|  1.1727e-01|   -5.825446|
+-----------------------------------------------------------------------+
|        File Writing Summary       |              Filename             |
+-----------------------------------------------------------------------+
|SU2 binary restart                 |restart_flow_databladeVALIDATION_Blade_21.dat|
|                                   |                      (8123.1 MB/s)|
|Paraview                           |volume_flow_databladeVALIDATION_Blade_21.vtu|
|                                   |                     (1004.25 MB/s)|
|Paraview surface                   |surface_flowdatabladeVALIDATION_Blade_21.vtu|
|                                   |                      (47.111 MB/s)|
|SU2 ASCII restart                  |restart_flow_databladeVALIDATION_Blade_21.csv|
|                                   |                     (21.1217 MB/s)|
|CSV file                           |surface_flowdatabladeVALIDATION_Blade_21.csv|
|                                   |                      (19.433 MB/s)|
+-----------------------------------------------------------------------+
+--------------------------------------+
|  Inner_Iter|   Time(sec)|    rms[Rho]|
+--------------------------------------+
|        2160|  1.1816e-01|   -5.761698|
|        2170|  1.1795e-01|   -5.742488|
|        2180|  1.1770e-01|   -5.838332|
|        2190|  1.1748e-01|   -5.859591|
|        2200|  1.1729e-01|   -5.837689|
+-----------------------------------------------------------------------+
|        File Writing Summary       |              Filename             |
+-----------------------------------------------------------------------+
|SU2 binary restart                 |restart_flow_databladeVALIDATION_Blade_21.dat|
|                                   |                     (12444.3 MB/s)|
|Paraview                           |volume_flow_databladeVALIDATION_Blade_21.vtu|
|                                   |                     (845.623 MB/s)|
|Paraview surface                   |surface_flowdatabladeVALIDATION_Blade_21.vtu|
|                                   |                     (60.4513 MB/s)|
|SU2 ASCII restart                  |restart_flow_databladeVALIDATION_Blade_21.csv|
|                                   |                     (20.3194 MB/s)|
|CSV file                           |surface_flowdatabladeVALIDATION_Blade_21.csv|
|                                   |                     (17.9039 MB/s)|
+-----------------------------------------------------------------------+
+--------------------------------------+
|  Inner_Iter|   Time(sec)|    rms[Rho]|
+--------------------------------------+
|        2210|  1.1821e-01|   -5.875422|
|        2220|  1.1801e-01|   -5.879729|
|        2230|  1.1782e-01|   -5.821148|
|        2240|  1.1761e-01|   -5.841227|
|        2250|  1.1737e-01|   -5.905482|
+-----------------------------------------------------------------------+
|        File Writing Summary       |              Filename             |
+-----------------------------------------------------------------------+
|SU2 binary restart                 |restart_flow_databladeVALIDATION_Blade_21.dat|
|                                   |                     (11199.5 MB/s)|
|Paraview                           |volume_flow_databladeVALIDATION_Blade_21.vtu|
|                                   |                     (1039.17 MB/s)|
|Paraview surface                   |surface_flowdatabladeVALIDATION_Blade_21.vtu|
|                                   |                     (132.632 MB/s)|
|SU2 ASCII restart                  |restart_flow_databladeVALIDATION_Blade_21.csv|
|                                   |                     (21.0452 MB/s)|
|CSV file                           |surface_flowdatabladeVALIDATION_Blade_21.csv|
|                                   |                     (20.2287 MB/s)|
+-----------------------------------------------------------------------+
+--------------------------------------+
|  Inner_Iter|   Time(sec)|    rms[Rho]|
+--------------------------------------+
|        2260|  1.1827e-01|   -5.882567|
|        2270|  1.1808e-01|   -5.909372|
|        2280|  1.1785e-01|   -5.956236|
|        2290|  1.1769e-01|   -5.920257|
|        2300|  1.1753e-01|   -5.845517|
+-----------------------------------------------------------------------+
|        File Writing Summary       |              Filename             |
+-----------------------------------------------------------------------+
|SU2 binary restart                 |restart_flow_databladeVALIDATION_Blade_21.dat|
|                                   |                       (12779 MB/s)|
|Paraview                           |volume_flow_databladeVALIDATION_Blade_21.vtu|
|                                   |                     (991.181 MB/s)|
|Paraview surface                   |surface_flowdatabladeVALIDATION_Blade_21.vtu|
|                                   |                     (74.8203 MB/s)|
|SU2 ASCII restart                  |restart_flow_databladeVALIDATION_Blade_21.csv|
|                                   |                     (20.5693 MB/s)|
|CSV file                           |surface_flowdatabladeVALIDATION_Blade_21.csv|
|                                   |                     (20.0209 MB/s)|
+-----------------------------------------------------------------------+
+--------------------------------------+
|  Inner_Iter|   Time(sec)|    rms[Rho]|
+--------------------------------------+
|        2310|  1.1838e-01|   -5.923674|
|        2320|  1.1813e-01|   -5.986479|
|        2330|  1.1791e-01|   -5.985835|
|        2340|  1.1771e-01|   -5.961451|
|        2350|  1.1749e-01|   -6.009035|
+-----------------------------------------------------------------------+
|        File Writing Summary       |              Filename             |
+-----------------------------------------------------------------------+
|SU2 binary restart                 |restart_flow_databladeVALIDATION_Blade_21.dat|
|                                   |                     (12096.2 MB/s)|
|Paraview                           |volume_flow_databladeVALIDATION_Blade_21.vtu|
[...]
|        File Writing Summary       |              Filename             |
+-----------------------------------------------------------------------+
|SU2 binary restart                 |restart_flow_databladeVALIDATION_Blade_21.dat|
|                                   |                     (11714.1 MB/s)|
|Paraview                           |volume_flow_databladeVALIDATION_Blade_21.vtu|
|                                   |                     (1022.42 MB/s)|
|Paraview surface                   |surface_flowdatabladeVALIDATION_Blade_21.vtu|
|                                   |                     (97.7045 MB/s)|
|SU2 ASCII restart                  |restart_flow_databladeVALIDATION_Blade_21.csv|
|                                   |                     (20.8744 MB/s)|
|CSV file                           |surface_flowdatabladeVALIDATION_Blade_21.csv|
|                                   |                     (19.9517 MB/s)|
+-----------------------------------------------------------------------+
+--------------------------------------+
|  Inner_Iter|   Time(sec)|    rms[Rho]|
+--------------------------------------+
|        3160|  1.1863e-01|   -6.645824|
|        3170|  1.1849e-01|   -6.602682|
|        3180|  1.1838e-01|   -6.629536|
|        3190|  1.1821e-01|   -6.703444|
|        3200|  1.1803e-01|   -6.692219|
+-----------------------------------------------------------------------+
|        File Writing Summary       |              Filename             |
+-----------------------------------------------------------------------+
|SU2 binary restart                 |restart_flow_databladeVALIDATION_Blade_21.dat|
|                                   |                      (9974.2 MB/s)|
|Paraview                           |volume_flow_databladeVALIDATION_Blade_21.vtu|
|                                   |                     (1109.59 MB/s)|
|Paraview surface                   |surface_flowdatabladeVALIDATION_Blade_21.vtu|
|                                   |                     (97.8156 MB/s)|
|SU2 ASCII restart                  |restart_flow_databladeVALIDATION_Blade_21.csv|
|                                   |                     (21.2163 MB/s)|
|CSV file                           |surface_flowdatabladeVALIDATION_Blade_21.csv|
|                                   |                     (21.1307 MB/s)|
+-----------------------------------------------------------------------+
+--------------------------------------+
|  Inner_Iter|   Time(sec)|    rms[Rho]|
+--------------------------------------+
|        3210|  1.1863e-01|   -6.622606|
|        3220|  1.1847e-01|   -6.705965|
|        3230|  1.1829e-01|   -6.714622|
|        3240|  1.1814e-01|   -6.695224|
|        3250|  1.1800e-01|   -6.684015|
+-----------------------------------------------------------------------+
|        File Writing Summary       |              Filename             |
+-----------------------------------------------------------------------+
|SU2 binary restart                 |restart_flow_databladeVALIDATION_Blade_21.dat|
|                                   |                      (8195.8 MB/s)|
|Paraview                           |volume_flow_databladeVALIDATION_Blade_21.vtu|
|                                   |                     (1029.79 MB/s)|
|Paraview surface                   |surface_flowdatabladeVALIDATION_Blade_21.vtu|
|                                   |                     (103.382 MB/s)|
|SU2 ASCII restart                  |restart_flow_databladeVALIDATION_Blade_21.csv|
|                                   |                     (21.0547 MB/s)|
|CSV file                           |surface_flowdatabladeVALIDATION_Blade_21.csv|
|                                   |                     (21.2225 MB/s)|
+-----------------------------------------------------------------------+
+--------------------------------------+
|  Inner_Iter|   Time(sec)|    rms[Rho]|
+--------------------------------------+
|        3260|  1.1856e-01|   -6.751228|
|        3270|  1.1839e-01|   -6.737631|
|        3280|  1.1824e-01|   -6.673241|
|        3290|  1.1812e-01|   -6.729872|
|        3300|  1.1798e-01|   -6.752983|
+-----------------------------------------------------------------------+
|        File Writing Summary       |              Filename             |
+-----------------------------------------------------------------------+
|SU2 binary restart                 |restart_flow_databladeVALIDATION_Blade_21.dat|
|                                   |                     (13348.2 MB/s)|
|Paraview                           |volume_flow_databladeVALIDATION_Blade_21.vtu|
|                                   |                     (1058.16 MB/s)|
|Paraview surface                   |surface_flowdatabladeVALIDATION_Blade_21.vtu|
|                                   |                     (95.4116 MB/s)|
|SU2 ASCII restart                  |restart_flow_databladeVALIDATION_Blade_21.csv|
|                                   |                     (20.9114 MB/s)|
|CSV file                           |surface_flowdatabladeVALIDATION_Blade_21.csv|
|                                   |                     (20.9644 MB/s)|
+-----------------------------------------------------------------------+
+--------------------------------------+
|  Inner_Iter|   Time(sec)|    rms[Rho]|
+--------------------------------------+
|        3310|  1.1856e-01|   -6.735188|
|        3320|  1.1842e-01|   -6.748477|
|        3330|  1.1827e-01|   -6.781454|
|        3340|  1.1816e-01|   -6.704770|
|        3350|  1.1807e-01|   -6.735667|
+-----------------------------------------------------------------------+
|        File Writing Summary       |              Filename             |
+-----------------------------------------------------------------------+
|SU2 binary restart                 |restart_flow_databladeVALIDATION_Blade_21.dat|
|                                   |                     (13463.3 MB/s)|
|Paraview                           |volume_flow_databladeVALIDATION_Blade_21.vtu|
|                                   |                     (1012.03 MB/s)|
|Paraview surface                   |surface_flowdatabladeVALIDATION_Blade_21.vtu|
|                                   |                     (96.4267 MB/s)|
|SU2 ASCII restart                  |restart_flow_databladeVALIDATION_Blade_21.csv|
|                                   |                     (21.2659 MB/s)|
|CSV file                           |surface_flowdatabladeVALIDATION_Blade_21.csv|
|                                   |                     (19.9064 MB/s)|
+-----------------------------------------------------------------------+
+--------------------------------------+
|  Inner_Iter|   Time(sec)|    rms[Rho]|
+--------------------------------------+
|        3360|  1.1867e-01|   -6.767332|
|        3370|  1.1854e-01|   -6.810222|
|        3380|  1.1841e-01|   -6.776899|
|        3390|  1.1825e-01|   -6.856598|
|        3400|  1.1809e-01|   -6.882559|
+-----------------------------------------------------------------------+
|        File Writing Summary       |              Filename             |
+-----------------------------------------------------------------------+
|SU2 binary restart                 |restart_flow_databladeVALIDATION_Blade_21.dat|
|                                   |                     (11826.6 MB/s)|
|Paraview                           |volume_flow_databladeVALIDATION_Blade_21.vtu|
|                                   |                     (903.678 MB/s)|
|Paraview surface                   |surface_flowdatabladeVALIDATION_Blade_21.vtu|
|                                   |                     (97.4242 MB/s)|
|SU2 ASCII restart                  |restart_flow_databladeVALIDATION_Blade_21.csv|
|                                   |                     (20.8053 MB/s)|
|CSV file                           |surface_flowdatabladeVALIDATION_Blade_21.csv|
|                                   |                     (21.3055 MB/s)|
+-----------------------------------------------------------------------+
+--------------------------------------+
|  Inner_Iter|   Time(sec)|    rms[Rho]|
+--------------------------------------+
|        3410|  1.1865e-01|   -6.875803|
|        3420|  1.1852e-01|   -6.855495|
|        3430|  1.1837e-01|   -6.897151|
|        3440|  1.1826e-01|   -6.867294|
|        3450|  1.1816e-01|   -6.836044|
+-----------------------------------------------------------------------+
|        File Writing Summary       |              Filename             |
+-----------------------------------------------------------------------+
|SU2 binary restart                 |restart_flow_databladeVALIDATION_Blade_21.dat|
|                                   |                     (11656.7 MB/s)|
|Paraview                           |volume_flow_databladeVALIDATION_Blade_21.vtu|
|                                   |                     (862.102 MB/s)|
|Paraview surface                   |surface_flowdatabladeVALIDATION_Blade_21.vtu|
|                                   |                      (80.429 MB/s)|
|SU2 ASCII restart                  |restart_flow_databladeVALIDATION_Blade_21.csv|
|                                   |                     (21.1321 MB/s)|
|CSV file                           |surface_flowdatabladeVALIDATION_Blade_21.csv|
|                                   |                     (19.7477 MB/s)|
+-----------------------------------------------------------------------+
+--------------------------------------+
|  Inner_Iter|   Time(sec)|    rms[Rho]|
+--------------------------------------+
|        3460|  1.1870e-01|   -6.878880|
|        3470|  1.1855e-01|   -6.907058|
|        3480|  1.1840e-01|   -6.910601|
|        3490|  1.1826e-01|   -6.883580|
|        3500|  1.1810e-01|   -6.946930|
+-----------------------------------------------------------------------+
|        File Writing Summary       |              Filename             |
+-----------------------------------------------------------------------+
|SU2 binary restart                 |restart_flow_databladeVALIDATION_Blade_21.dat|
|                                   |                     (10808.8 MB/s)|
|Paraview                           |volume_flow_databladeVALIDATION_Blade_21.vtu|
|                                   |                     (1065.12 MB/s)|
|Paraview surface                   |surface_flowdatabladeVALIDATION_Blade_21.vtu|
|                                   |                     (88.2485 MB/s)|
|SU2 ASCII restart                  |restart_flow_databladeVALIDATION_Blade_21.csv|
|                                   |                     (20.4266 MB/s)|
|CSV file                           |surface_flowdatabladeVALIDATION_Blade_21.csv|
|                                   |                     (20.3899 MB/s)|
+-----------------------------------------------------------------------+
+--------------------------------------+
|  Inner_Iter|   Time(sec)|    rms[Rho]|
+--------------------------------------+
|        3510|  1.1867e-01|   -6.936304|
|        3520|  1.1853e-01|   -6.908668|
|        3530|  1.1841e-01|   -6.938731|
|        3540|  1.1835e-01|   -6.946268|
|        3550|  1.1828e-01|   -6.935055|
+-----------------------------------------------------------------------+
|        File Writing Summary       |              Filename             |
+-----------------------------------------------------------------------+
|SU2 binary restart                 |restart_flow_databladeVALIDATION_Blade_21.dat|
|                                   |                     (12676.2 MB/s)|
|Paraview                           |volume_flow_databladeVALIDATION_Blade_21.vtu|
|                                   |                      (962.54 MB/s)|
|Paraview surface                   |surface_flowdatabladeVALIDATION_Blade_21.vtu|
|                                   |                     (80.1669 MB/s)|
|SU2 ASCII restart                  |restart_flow_databladeVALIDATION_Blade_21.csv|
|                                   |                     (20.9803 MB/s)|
|CSV file                           |surface_flowdatabladeVALIDATION_Blade_21.csv|
|                                   |                     (18.5299 MB/s)|
+-----------------------------------------------------------------------+
+--------------------------------------+
|  Inner_Iter|   Time(sec)|    rms[Rho]|
+--------------------------------------+
|        3560|  1.1887e-01|   -6.907255|
|        3570|  1.1875e-01|   -6.960429|
|        3580|  1.1863e-01|   -6.959540|
|        3590|  1.1852e-01|   -6.945227|
|        3600|  1.1841e-01|   -6.958592|
+-----------------------------------------------------------------------+
|        File Writing Summary       |              Filename             |
+-----------------------------------------------------------------------+
|SU2 binary restart                 |restart_flow_databladeVALIDATION_Blade_21.dat|
|                                   |                     (12014.7 MB/s)|
|Paraview                           |volume_flow_databladeVALIDATION_Blade_21.vtu|
|                                   |                     (939.604 MB/s)|
|Paraview surface                   |surface_flowdatabladeVALIDATION_Blade_21.vtu|
|                                   |                     (93.7567 MB/s)|
|SU2 ASCII restart                  |restart_flow_databladeVALIDATION_Blade_21.csv|
|                                   |                     (20.2947 MB/s)|
|CSV file                           |surface_flowdatabladeVALIDATION_Blade_21.csv|
|                                   |                     (18.7534 MB/s)|
+-----------------------------------------------------------------------+
+--------------------------------------+
|  Inner_Iter|   Time(sec)|    rms[Rho]|
+--------------------------------------+
|        3610|  1.1894e-01|   -6.969157|
|        3620|  1.1882e-01|   -6.937310|
|        3630|  1.1871e-01|   -6.928436|
|        3640|  1.1860e-01|   -6.972335|
|        3650|  1.1847e-01|   -6.979444|
+-----------------------------------------------------------------------+
|        File Writing Summary       |              Filename             |
+-----------------------------------------------------------------------+
|SU2 binary restart                 |restart_flow_databladeVALIDATION_Blade_21.dat|
|                                   |                     (12858.2 MB/s)|
|Paraview                           |volume_flow_databladeVALIDATION_Blade_21.vtu|
|                                   |                     (968.293 MB/s)|
|Paraview surface                   |surface_flowdatabladeVALIDATION_Blade_21.vtu|
|                                   |                     (95.6235 MB/s)|
|SU2 ASCII restart                  |restart_flow_databladeVALIDATION_Blade_21.csv|
|                                   |                     (21.0904 MB/s)|
|CSV file                           |surface_flowdatabladeVALIDATION_Blade_21.csv|
|                                   |                     (19.7366 MB/s)|
+-----------------------------------------------------------------------+
+--------------------------------------+
|  Inner_Iter|   Time(sec)|    rms[Rho]|
+--------------------------------------+
|        3660|  1.1898e-01|   -6.979097|
|        3670|  1.1889e-01|   -6.977960|
|        3680|  1.1876e-01|   -6.995611|
|        3690|  1.1864e-01|   -6.973767|
|        3700|  1.1853e-01|   -6.954355|
+-----------------------------------------------------------------------+
|        File Writing Summary       |              Filename             |
+-----------------------------------------------------------------------+
|SU2 binary restart                 |restart_flow_databladeVALIDATION_Blade_21.dat|
|                                   |                     (8791.42 MB/s)|
|Paraview                           |volume_flow_databladeVALIDATION_Blade_21.vtu|
|                                   |                     (985.197 MB/s)|
|Paraview surface                   |surface_flowdatabladeVALIDATION_Blade_21.vtu|
|                                   |                     (80.8417 MB/s)|
|SU2 ASCII restart                  |restart_flow_databladeVALIDATION_Blade_21.csv|
|                                   |                     (20.8168 MB/s)|
|CSV file                           |surface_flowdatabladeVALIDATION_Blade_21.csv|
|                                   |                     (20.8951 MB/s)|
+-----------------------------------------------------------------------+
+--------------------------------------+
|  Inner_Iter|   Time(sec)|    rms[Rho]|
+--------------------------------------+
|        3710|  1.1904e-01|   -6.985677|
|        3720|  1.1890e-01|   -7.000736|

----------------------------- Solver Exit -------------------------------
All convergence criteria satisfied.
+-----------------------------------------------------------------------+
|      Convergence Field     |     Value    |   Criterion  |  Converged |
+-----------------------------------------------------------------------+
|                    rms[Rho]|      -7.00074|          < -7|         Yes|
+-----------------------------------------------------------------------+
-------------------------------------------------------------------------
+-----------------------------------------------------------------------+
|        File Writing Summary       |              Filename             |
+-----------------------------------------------------------------------+
|SU2 binary restart                 |restart_flow_databladeVALIDATION_Blade_21.dat|
|                                   |                     (12650.8 MB/s)|
|Paraview                           |volume_flow_databladeVALIDATION_Blade_21.vtu|
|                                   |                     (941.488 MB/s)|
|Paraview surface                   |surface_flowdatabladeVALIDATION_Blade_21.vtu|
|                                   |                     (69.0158 MB/s)|
|SU2 ASCII restart                  |restart_flow_databladeVALIDATION_Blade_21.csv|
|                                   |                     (21.0722 MB/s)|
|CSV file                           |surface_flowdatabladeVALIDATION_Blade_21.csv|
|                                   |                     (21.4521 MB/s)|
+-----------------------------------------------------------------------+

--------------------------- Finalizing Solver ---------------------------
Deleted CNumerics container.
Deleted CIntegration container.
Deleted CSolver container.
Deleted CIteration container.
Deleted CInterface container.
Deleted CGeometry container.
Deleted CFreeFormDefBox class.
Deleted CSurfaceMovement class.
Deleted CVolumetricMovement class.
Deleted CConfig container.
Deleted nInst container.
Deleted COutput class.
-------------------------------------------------------------------------


-------------------------- Performance Summary --------------------------
Simulation totals:
   Wall-clock time (hrs):    0.123704 |            Core-hrs:     1.48445
                   Cores:          12 |          DOFs/point:           5
             Points/core:     5169.92 |   Ghost points/core:     140.333
 Ghost/Owned Point Ratio:   0.0271442 | 

Preprocessing phase:
       Preproc. Time (s):    0.542166 |   Preproc. Time (%):    0.121743

Compute phase:
        Compute Time (s):     442.421 |    Compute Time (%):     99.3455
         Iteration count:        3721 |         Avg. s/iter:    0.118898
     Core-s/iter/Mpoints:     22.3904 |           Mpoints/s:    0.535945

Output phase:
         Output Time (s):     2.37265 |     Output Time (%):    0.532777
            Output count:           1 |       Avg. s/output:     2.37265
 Restart Aggr. BW (MB/s):      837320 |           MB/s/core:     69776.7
-------------------------------------------------------------------------


------------------------- Exit Success (SU2_CFD) ------------------------

