
-------------------------------------------------------------------------
|    ___ _   _ ___                                                      |
|   / __| | | |_  )   Release 8.0.1 "Harrier"                           |
|   \__ \ |_| |/ /                                                      |
|   |___/\___//___|   Suite (Computational Fluid Dynamics Code)         |
|                                                                       |
-------------------------------------------------------------------------
| SU2 Project Website: https://su2code.github.io                        |
|                                                                       |
| The SU2 Project is maintained by the SU2 Foundation                   |
| (http://su2foundation.org)                                            |
-------------------------------------------------------------------------
| Copyright 2012-2024, SU2 Contributors                                 |
|                                                                       |
| SU2 is free software; you can redistribute it and/or                  |
| modify it under the terms of the GNU Lesser General Public            |
| License as published by the Free Software Foundation; either          |
| version 2.1 of the License, or (at your option) any later version.    |
|                                                                       |
| SU2 is distributed in the hope that it will be useful,                |
| but WITHOUT ANY WARRANTY; without even the implied warranty of        |
| MERCHANTABILITY or FITNESS FOR A PARTICULAR PURPOSE. See the GNU      |
| Lesser General Public License for more details.                       |
|                                                                       |
| You should have received a copy of the GNU Lesser General Public      |
| License along with SU2. If not, see <http://www.gnu.org/licenses/>.   |
-------------------------------------------------------------------------

Parsing config file for zone 0

----------------- Physical Case Definition ( Zone 0 ) -------------------
Compressible RANS equations.
Turbulence model: Spalart-Allmaras-noft2-BCM
Hybrid RANS/LES: No Hybrid RANS/LES
Mach number: 0.667.
Angle of attack (AoA): -4 deg, and angle of sideslip (AoS): 0 deg.
Reynolds number: 600000. Reference length 1.00217.
No restart solution, use the values at infinity (freestream).
Dimensional simulation.
The reference area will be computed using y(2D) or z(3D) projection.
The semi-span will be computed using the max y(3D) value.
The reference length is 1.00217 m.
Reference origin for moment evaluation is (0, 0, 0).
Surface(s) where the force coefficients are evaluated: blade1.

Surface(s) plotted in the output file: blade1.
Surface(s) to be analyzed in detail: inlet, outlet, blade1.
Input mesh file name: cascade2D_databladeVALIDATION_Blade_24.su2

--------------- Space Numerical Integration ( Zone 0 ) ------------------
Jameson-Schmidt-Turkel scheme (2nd order in space) for the flow inviscid terms.
JST viscous coefficients (2nd & 4th): 0.5, 0.02.
The method includes a grid stretching correction (p = 0.3).
Scalar upwind solver for the turbulence model.
First order integration in space.
Average of gradients with correction (viscous flow terms).
Average of gradients with correction (viscous turbulence terms).
Gradient for upwind reconstruction: inverse-distance weighted Least-Squares.
Gradient for viscous and source terms: inverse-distance weighted Least-Squares.

--------------- Time Numerical Integration  ( Zone 0 ) ------------------
Local time stepping (steady state simulation).
Euler implicit method for the flow equations.
FGMRES is used for solving the linear system.
Using a LU-SGS preconditioning.
Convergence criteria of the linear solver: 0.0001.
Max number of linear iterations: 10.
V Multigrid Cycle, with 3 multigrid levels.
Damping factor for the residual restriction: 0.75.
Damping factor for the correction prolongation: 0.75.
CFL adaptation. Factor down: 0.1, factor up: 1.2,
                lower limit: 0.1, upper limit: 100,
                acceptable linear residual: 0.001.
+-------------------------------------------+
|  MG Level| Presmooth|PostSmooth|CorrectSmo|
+-------------------------------------------+
|         0|         1|         0|         1|
|         1|         2|         2|         2|
|         2|         3|         3|         3|
|         3|         3|         0|         0|
+-------------------------------------------+
Courant-Friedrichs-Lewy number:       12
Euler implicit time integration for the turbulence model.

------------------ Convergence Criteria  ( Zone 0 ) ---------------------
Maximum number of solver subiterations: 7000.
Begin convergence monitoring at iteration 500.
Residual minimum value: 1e-7.
Cauchy series min. value: 1e-10.
Number of Cauchy elements: 100.
Begin windowed time average at iteration 0.

-------------------- Output Information ( Zone 0 ) ----------------------
File writing frequency: 
+------------------------------------+
|                     File| Frequency|
+------------------------------------+
|                  RESTART|        50|
|                 PARAVIEW|        50|
|         SURFACE_PARAVIEW|        50|
|                      CSV|        50|
|              SURFACE_CSV|        50|
+------------------------------------+
Writing the convergence history file every 1 inner iterations.
Writing the screen convergence history every 10 inner iterations.
The tabular file format is CSV (.csv).
Convergence history file name: history_databladeVALIDATION_Blade_24.
Forces breakdown file name: forces_breakdown.dat.
Surface file name: surface_flowdatabladeVALIDATION_Blade_24.
Volume file name: volume_flow_databladeVALIDATION_Blade_24.
Restart file name: restart_flow_databladeVALIDATION_Blade_24.dat.

------------- Config File Boundary Information ( Zone 0 ) ---------------
+-----------------------------------------------------------------------+
|                        Marker Type|                        Marker Name|
+-----------------------------------------------------------------------+
|                  Periodic boundary|               symmetricWallsBOTTOM|
|                                   |                  symmetricWallsTOP|
+-----------------------------------------------------------------------+
|                     Inlet boundary|                              inlet|
+-----------------------------------------------------------------------+
|                    Outlet boundary|                             outlet|
+-----------------------------------------------------------------------+
|                     Heat flux wall|                             blade1|
|                                   |                             blade2|
+-----------------------------------------------------------------------+

-------------------- Output Preprocessing ( Zone 0 ) --------------------
  Info: Ignoring the following screen output fields:
  LINSOL_ITER_TRANS, LINSOL_RESIDUAL_TRANS
Screen output fields: INNER_ITER, CUR_TIME, RMS_DENSITY
  Info: Ignoring the following history output groups:
  RMS_TKE, RMS_DISSIPATION
History output group(s): INNER_ITER, WALL_TIME, RMS_DENSITY, RMS_MOMENTUM-X, RMS_ENERGY, LINSOL, CFL_NUMBER, FLOW_COEFF_SURF, AERO_COEFF_SURF
Convergence field(s): RMS_DENSITY
Warning: No (valid) fields chosen for time convergence monitoring. Time convergence monitoring inactive.
Volume output fields: COORDINATES, SOLUTION, PRIMITIVE, RESIDUAL, TIMESTEP, MESH_QUALITY, VORTEX_IDENTIFICATION

------------------- Geometry Preprocessing ( Zone 0 ) -------------------
Two dimensional problem.
69417 grid points before partitioning.
108558 volume elements before partitioning.
5 surface markers.
30 boundary elements in index 0 (Marker = inlet).
283 boundary elements in index 1 (Marker = symmetricWallsBOTTOM).
283 boundary elements in index 2 (Marker = symmetricWallsTOP).
30 boundary elements in index 3 (Marker = outlet).
1186 boundary elements in index 4 (Marker = blade1).
Executing the partitioning functions.
Building the graph adjacency structure.
Calling ParMETIS... graph partitioning complete (1731 edge cuts).
Distributing ParMETIS coloring.
Rebalancing vertices.
Rebalancing volume element connectivity.
Rebalancing markers and surface elements.
71510 vertices including ghost points. 
110279 interior elements including halo cells. 
81467 triangles.
28812 quadrilaterals.
Establishing MPI communication patterns.
Setting point connectivity.
Renumbering points (Reverse Cuthill McKee Ordering).
Recomputing point connectivity.
Setting element connectivity.
Checking the numerical grid orientation.
All volume elements are correctly orientend.
There has been a re-orientation of 916 LINE surface elements.
Identifying edges and vertices.
Setting the control volume structure.
Area of the computational grid: 3.97567.
Searching for the closest normal neighbors to the surfaces.
Storing a mapping from global to local point index.
Compute the surface curvature.
Max K: 124.314. Mean K: 4.13722. Standard deviation K: 13.8332.
Checking for periodicity.
WARNING: Periodicity has been detected. Disabling multigrid. 
Computing mesh quality statistics for the dual control volumes.
+--------------------------------------------------------------+
|           Mesh Quality Metric|        Minimum|        Maximum|
+--------------------------------------------------------------+
|    Orthogonality Angle (deg.)|        55.2254|             90|
|     CV Face Area Aspect Ratio|        1.00005|        284.463|
|           CV Sub-Volume Ratio|              1|        21.1953|
+--------------------------------------------------------------+
Finding max control volume width.
Communicating number of neighbors.
Reference length = 1.01461 m.
Wetted area = 2.84272 m.
Area projection in the x-plane = 0.891086 m, y-plane = 1.01461 m.
Max. coordinate in the x-direction = 1.01451 m, y-direction = 0.761713 m.
Min. coordinate in the x-direction = -0.000105228 m, y-direction = -0.129377 m.
Matching the periodic boundary points for marker pair 1.
 Matched 568 points with a max distance of: 5.41277e-14.
Computing wall distances.

-------------------- Solver Preprocessing ( Zone 0 ) --------------------
Viscous flow: Computing pressure using the ideal gas law
based on the free-stream temperature and a density computed
from the Reynolds number.
Force coefficients computed using free-stream values.

-- Models:
+------------------------------------------------------------------------------+
|          Viscosity Model|        Conductivity Model|              Fluid Model|
+------------------------------------------------------------------------------+
|               SUTHERLAND|          CONSTANT_PRANDTL|                IDEAL_GAS|
+------------------------------------------------------------------------------+
-- Fluid properties:
+------------------------------------------------------------------------------+
|                  Name|    Dim. value|    Ref. value|      Unit|Non-dim. value|
+------------------------------------------------------------------------------+
|        Ref. Viscosity|     1.716e-05|             1|   N.s/m^2|     1.716e-05|
|      Sutherland Temp.|        273.15|             1|         K|        273.15|
|     Sutherland Const.|         110.4|             1|         K|         110.4|
+------------------------------------------------------------------------------+
|        Prandtl (Lam.)|             -|             -|         -|          0.72|
|       Prandtl (Turb.)|             -|             -|         -|           0.9|
+------------------------------------------------------------------------------+
|          Gas Constant|       287.058|             1|  N.m/kg.K|       287.058|
|      Spec. Heat Ratio|             -|             -|         -|           1.4|
+------------------------------------------------------------------------------+
-- Initial and free-stream conditions:
+------------------------------------------------------------------------------+
|                  Name|    Dim. value|    Ref. value|      Unit|Non-dim. value|
+------------------------------------------------------------------------------+
|       Static Pressure|       4109.38|             1|        Pa|       4109.38|
|               Density|     0.0477183|             1|    kg/m^3|     0.0477183|
|           Temperature|           300|             1|         K|           300|
|          Total Energy|        242112|             1|   m^2/s^2|        242112|
|            Velocity-X|       231.034|             1|       m/s|       231.034|
|            Velocity-Y|      -16.1555|             1|       m/s|      -16.1555|
|    Velocity Magnitude|       231.598|             1|       m/s|       231.598|
+------------------------------------------------------------------------------+
|             Viscosity|   1.84592e-05|             1|   N.s/m^2|   1.84592e-05|
|          Conductivity|             -|             1|   W/m^2.K|             -|
|     Turb. Kin. Energy|       98.5594|             1|   m^2/s^2|       98.5594|
|     Spec. Dissipation|   2.54783e+06|             1|       1/s|   2.54783e+06|
+------------------------------------------------------------------------------+
|           Mach Number|             -|             -|         -|         0.667|
|       Reynolds Number|             -|             -|         -|        600000|
+------------------------------------------------------------------------------+
Initialize Jacobian structure (Navier-Stokes). MG level: 0.
Initialize Jacobian structure (SA model).

------------------- Numerics Preprocessing ( Zone 0 ) -------------------

----------------- Integration Preprocessing ( Zone 0 ) ------------------

------------------- Iteration Preprocessing ( Zone 0 ) ------------------
Euler/Navier-Stokes/RANS fluid iteration.

------------------------------ Begin Solver -----------------------------

Simulation Run using the Single-zone Driver
WARNING: SU2 was not compiled for an AVX-capable architecture. Performance could be better,
         see https://su2code.github.io/docs_v7/Build-SU2-Linux-MacOS/#compiler-optimizations
+--------------------------------------+
|  Inner_Iter|    Cur_Time|    rms[Rho]|
+--------------------------------------+
|           0|  0.0000e+00|   -2.596877|
|          10|  0.0000e+00|   -3.214569|
|          20|  0.0000e+00|   -3.093683|
|          30|  0.0000e+00|   -3.052502|
|          40|  0.0000e+00|   -3.024553|
|          50|  0.0000e+00|   -2.858325|
+-----------------------------------------------------------------------+
|        File Writing Summary       |              Filename             |
+-----------------------------------------------------------------------+
|SU2 binary restart                 |restart_flow_databladeVALIDATION_Blade_24.dat|
|                                   |                     (7338.69 MB/s)|
|Paraview                           |volume_flow_databladeVALIDATION_Blade_24.vtu|
|                                   |                      (166.21 MB/s)|
|Paraview surface                   |surface_flowdatabladeVALIDATION_Blade_24.vtu|
|                                   |                     (48.2877 MB/s)|
|SU2 ASCII restart                  |restart_flow_databladeVALIDATION_Blade_24.csv|
|                                   |                     (13.8281 MB/s)|
|CSV file                           |surface_flowdatabladeVALIDATION_Blade_24.csv|
|                                   |                     (12.5949 MB/s)|
+-----------------------------------------------------------------------+
+--------------------------------------+
|  Inner_Iter|    Cur_Time|    rms[Rho]|
+--------------------------------------+
|          60|  0.0000e+00|   -3.055191|
|          70|  0.0000e+00|   -3.127380|
|          80|  0.0000e+00|   -3.153272|
|          90|  0.0000e+00|   -3.136177|
|         100|  0.0000e+00|   -3.175965|
+-----------------------------------------------------------------------+
|        File Writing Summary       |              Filename             |
+-----------------------------------------------------------------------+
|SU2 binary restart                 |restart_flow_databladeVALIDATION_Blade_24.dat|
|                                   |                     (5377.49 MB/s)|
|Paraview                           |volume_flow_databladeVALIDATION_Blade_24.vtu|
|                                   |                     (686.264 MB/s)|
|Paraview surface                   |surface_flowdatabladeVALIDATION_Blade_24.vtu|
|                                   |                     (39.8905 MB/s)|
|SU2 ASCII restart                  |restart_flow_databladeVALIDATION_Blade_24.csv|
|                                   |                      (11.871 MB/s)|
|CSV file                           |surface_flowdatabladeVALIDATION_Blade_24.csv|
|                                   |                     (11.0248 MB/s)|
+-----------------------------------------------------------------------+
+--------------------------------------+
|  Inner_Iter|    Cur_Time|    rms[Rho]|
+--------------------------------------+
|         110|  0.0000e+00|   -3.139795|
|         120|  0.0000e+00|   -3.104261|
|         130|  0.0000e+00|   -3.074616|
|         140|  0.0000e+00|   -3.162967|
|         150|  0.0000e+00|   -3.200874|
+-----------------------------------------------------------------------+
|        File Writing Summary       |              Filename             |
+-----------------------------------------------------------------------+
|SU2 binary restart                 |restart_flow_databladeVALIDATION_Blade_24.dat|
|                                   |                     (6944.11 MB/s)|
|Paraview                           |volume_flow_databladeVALIDATION_Blade_24.vtu|
|                                   |                     (410.212 MB/s)|
|Paraview surface                   |surface_flowdatabladeVALIDATION_Blade_24.vtu|
|                                   |                     (26.3851 MB/s)|
|SU2 ASCII restart                  |restart_flow_databladeVALIDATION_Blade_24.csv|
|                                   |                     (12.2557 MB/s)|
|CSV file                           |surface_flowdatabladeVALIDATION_Blade_24.csv|
|                                   |                     (10.2108 MB/s)|
+-----------------------------------------------------------------------+
+--------------------------------------+
|  Inner_Iter|    Cur_Time|    rms[Rho]|
+--------------------------------------+
|         160|  0.0000e+00|   -3.179498|
|         170|  0.0000e+00|   -3.187930|
|         180|  0.0000e+00|   -3.272521|
|         190|  0.0000e+00|   -3.266386|
|         200|  0.0000e+00|   -2.995922|
+-----------------------------------------------------------------------+
|        File Writing Summary       |              Filename             |
+-----------------------------------------------------------------------+
|SU2 binary restart                 |restart_flow_databladeVALIDATION_Blade_24.dat|
|                                   |                     (6035.87 MB/s)|
|Paraview                           |volume_flow_databladeVALIDATION_Blade_24.vtu|
|                                   |                     (508.187 MB/s)|
|Paraview surface                   |surface_flowdatabladeVALIDATION_Blade_24.vtu|
|                                   |                     (42.1722 MB/s)|
|SU2 ASCII restart                  |restart_flow_databladeVALIDATION_Blade_24.csv|
|                                   |                     (12.9591 MB/s)|
|CSV file                           |surface_flowdatabladeVALIDATION_Blade_24.csv|
|                                   |                     (13.4282 MB/s)|
+-----------------------------------------------------------------------+
+--------------------------------------+
|  Inner_Iter|    Cur_Time|    rms[Rho]|
+--------------------------------------+
|         210|  0.0000e+00|   -3.073527|
|         220|  0.0000e+00|   -3.058724|
|         230|  0.0000e+00|   -3.032304|
|         240|  0.0000e+00|   -3.092539|
|         250|  0.0000e+00|   -3.170796|
+-----------------------------------------------------------------------+
|        File Writing Summary       |              Filename             |
+-----------------------------------------------------------------------+
|SU2 binary restart                 |restart_flow_databladeVALIDATION_Blade_24.dat|
|                                   |                     (9324.01 MB/s)|
|Paraview                           |volume_flow_databladeVALIDATION_Blade_24.vtu|
|                                   |                     (292.235 MB/s)|
|Paraview surface                   |surface_flowdatabladeVALIDATION_Blade_24.vtu|
|                                   |                     (25.8258 MB/s)|
|SU2 ASCII restart                  |restart_flow_databladeVALIDATION_Blade_24.csv|
|                                   |                     (12.2064 MB/s)|
|CSV file                           |surface_flowdatabladeVALIDATION_Blade_24.csv|
|                                   |                     (10.9316 MB/s)|
+-----------------------------------------------------------------------+
+--------------------------------------+
|  Inner_Iter|    Cur_Time|    rms[Rho]|
+--------------------------------------+
|         260|  0.0000e+00|   -3.206442|
|         270|  0.0000e+00|   -3.323472|
|         280|  0.0000e+00|   -3.355767|
|         290|  0.0000e+00|   -3.275685|
|         300|  0.0000e+00|   -3.277590|
+-----------------------------------------------------------------------+
|        File Writing Summary       |              Filename             |
+-----------------------------------------------------------------------+
|SU2 binary restart                 |restart_flow_databladeVALIDATION_Blade_24.dat|
|                                   |                     (11271.2 MB/s)|
|Paraview                           |volume_flow_databladeVALIDATION_Blade_24.vtu|
|                                   |                     (149.526 MB/s)|
|Paraview surface                   |surface_flowdatabladeVALIDATION_Blade_24.vtu|
|                                   |                     (28.2922 MB/s)|
|SU2 ASCII restart                  |restart_flow_databladeVALIDATION_Blade_24.csv|
|                                   |                     (12.4376 MB/s)|
|CSV file                           |surface_flowdatabladeVALIDATION_Blade_24.csv|
|                                   |                     (8.41081 MB/s)|
+-----------------------------------------------------------------------+
+--------------------------------------+
|  Inner_Iter|    Cur_Time|    rms[Rho]|
+--------------------------------------+
|         310|  0.0000e+00|   -3.347625|
|         320|  0.0000e+00|   -3.364219|
|         330|  0.0000e+00|   -3.334377|
|         340|  0.0000e+00|   -3.397881|
|         350|  0.0000e+00|   -3.462146|
+-----------------------------------------------------------------------+
|        File Writing Summary       |              Filename             |
+-----------------------------------------------------------------------+
|SU2 binary restart                 |restart_flow_databladeVALIDATION_Blade_24.dat|
|                                   |                     (5153.54 MB/s)|
|Paraview                           |volume_flow_databladeVALIDATION_Blade_24.vtu|
|                                   |                     (731.862 MB/s)|
|Paraview surface                   |surface_flowdatabladeVALIDATION_Blade_24.vtu|
|                                   |                     (51.0473 MB/s)|
|SU2 ASCII restart                  |restart_flow_databladeVALIDATION_Blade_24.csv|
|                                   |                     (12.4615 MB/s)|
|CSV file                           |surface_flowdatabladeVALIDATION_Blade_24.csv|
|                                   |                     (11.5865 MB/s)|
+-----------------------------------------------------------------------+
+--------------------------------------+
|  Inner_Iter|    Cur_Time|    rms[Rho]|
+--------------------------------------+
|         360|  0.0000e+00|   -3.441169|
|         370|  0.0000e+00|   -3.484819|
|         380|  0.0000e+00|   -3.527355|
|         390|  0.0000e+00|   -3.587967|
|         400|  0.0000e+00|   -3.557873|
+-----------------------------------------------------------------------+
|        File Writing Summary       |              Filename             |
+-----------------------------------------------------------------------+
|SU2 binary restart                 |restart_flow_databladeVALIDATION_Blade_24.dat|
|                                   |                      (2372.1 MB/s)|
|Paraview                           |volume_flow_databladeVALIDATION_Blade_24.vtu|
|                                   |                     (205.991 MB/s)|
|Paraview surface                   |surface_flowdatabladeVALIDATION_Blade_24.vtu|
|                                   |                     (14.7812 MB/s)|
|SU2 ASCII restart                  |restart_flow_databladeVALIDATION_Blade_24.csv|
|                                   |                     (12.0014 MB/s)|
|CSV file                           |surface_flowdatabladeVALIDATION_Blade_24.csv|
|                                   |                     (12.8784 MB/s)|
+-----------------------------------------------------------------------+
+--------------------------------------+
|  Inner_Iter|    Cur_Time|    rms[Rho]|
+--------------------------------------+
|         410|  0.0000e+00|   -3.612434|
|         420|  0.0000e+00|   -3.684384|
|         430|  0.0000e+00|   -3.642643|
|         440|  0.0000e+00|   -3.658205|
|         450|  0.0000e+00|   -3.712771|
+-----------------------------------------------------------------------+
|        File Writing Summary       |              Filename             |
+-----------------------------------------------------------------------+
|SU2 binary restart                 |restart_flow_databladeVALIDATION_Blade_24.dat|
|                                   |                     (10167.7 MB/s)|
|Paraview                           |volume_flow_databladeVALIDATION_Blade_24.vtu|
|                                   |                     (594.638 MB/s)|
|Paraview surface                   |surface_flowdatabladeVALIDATION_Blade_24.vtu|
|                                   |                     (16.8344 MB/s)|
|SU2 ASCII restart                  |restart_flow_databladeVALIDATION_Blade_24.csv|
|                                   |                     (12.9425 MB/s)|
|CSV file                           |surface_flowdatabladeVALIDATION_Blade_24.csv|
|                                   |                     (8.01206 MB/s)|
+-----------------------------------------------------------------------+
+--------------------------------------+
|  Inner_Iter|    Cur_Time|    rms[Rho]|
+--------------------------------------+
|         460|  0.0000e+00|   -3.749132|
|         470|  0.0000e+00|   -3.710341|
|         480|  0.0000e+00|   -3.826111|
|         490|  0.0000e+00|   -3.795771|
|         500|  0.0000e+00|   -3.850543|
+-----------------------------------------------------------------------+
|        File Writing Summary       |              Filename             |
+-----------------------------------------------------------------------+
|SU2 binary restart                 |restart_flow_databladeVALIDATION_Blade_24.dat|
|                                   |                     (3856.38 MB/s)|
|Paraview                           |volume_flow_databladeVALIDATION_Blade_24.vtu|
|                                   |                     (733.101 MB/s)|
|Paraview surface                   |surface_flowdatabladeVALIDATION_Blade_24.vtu|
|                                   |                      (79.777 MB/s)|
|SU2 ASCII restart                  |restart_flow_databladeVALIDATION_Blade_24.csv|
|                                   |                     (11.9647 MB/s)|
|CSV file                           |surface_flowdatabladeVALIDATION_Blade_24.csv|
|                                   |                     (12.8883 MB/s)|
+-----------------------------------------------------------------------+
+--------------------------------------+
|  Inner_Iter|    Cur_Time|    rms[Rho]|
+--------------------------------------+
|         510|  0.0000e+00|   -3.890207|
|         520|  0.0000e+00|   -3.924376|
|         530|  0.0000e+00|   -3.899295|
|         540|  0.0000e+00|   -3.946648|
|         550|  0.0000e+00|   -3.925516|
+-----------------------------------------------------------------------+
|        File Writing Summary       |              Filename             |
+-----------------------------------------------------------------------+
|SU2 binary restart                 |restart_flow_databladeVALIDATION_Blade_24.dat|
|                                   |                     (8216.21 MB/s)|
|Paraview                           |volume_flow_databladeVALIDATION_Blade_24.vtu|
|                                   |                     (711.908 MB/s)|
|Paraview surface                   |surface_flowdatabladeVALIDATION_Blade_24.vtu|
|                                   |                      (43.339 MB/s)|
|SU2 ASCII restart                  |restart_flow_databladeVALIDATION_Blade_24.csv|
|                                   |                     (12.1349 MB/s)|
|CSV file                           |surface_flowdatabladeVALIDATION_Blade_24.csv|
|                                   |                     (11.9445 MB/s)|
+-----------------------------------------------------------------------+
+--------------------------------------+
|  Inner_Iter|    Cur_Time|    rms[Rho]|
+--------------------------------------+
|         560|  0.0000e+00|   -3.950137|
|         570|  0.0000e+00|   -3.957493|
|         580|  0.0000e+00|   -3.907516|
|         590|  0.0000e+00|   -3.934398|
|         600|  0.0000e+00|   -3.958006|
+-----------------------------------------------------------------------+
|        File Writing Summary       |              Filename             |
+-----------------------------------------------------------------------+
|SU2 binary restart                 |restart_flow_databladeVALIDATION_Blade_24.dat|
|                                   |                     (10216.4 MB/s)|
|Paraview                           |volume_flow_databladeVALIDATION_Blade_24.vtu|
|                                   |                     (782.798 MB/s)|
|Paraview surface                   |surface_flowdatabladeVALIDATION_Blade_24.vtu|
|                                   |                     (65.2289 MB/s)|
|SU2 ASCII restart                  |restart_flow_databladeVALIDATION_Blade_24.csv|
|                                   |                      (13.451 MB/s)|
|CSV file                           |surface_flowdatabladeVALIDATION_Blade_24.csv|
|                                   |                     (14.0711 MB/s)|
+-----------------------------------------------------------------------+
+--------------------------------------+
|  Inner_Iter|    Cur_Time|    rms[Rho]|
+--------------------------------------+
|         610|  0.0000e+00|   -3.933442|
|         620|  0.0000e+00|   -3.952409|
|         630|  0.0000e+00|   -3.974918|
|         640|  0.0000e+00|   -3.970292|
|         650|  0.0000e+00|   -4.016930|
+-----------------------------------------------------------------------+
|        File Writing Summary       |              Filename             |
+-----------------------------------------------------------------------+
|SU2 binary restart                 |restart_flow_databladeVALIDATION_Blade_24.dat|
|                                   |                     (6319.35 MB/s)|
|Paraview                           |volume_flow_databladeVALIDATION_Blade_24.vtu|
|                                   |                     (727.402 MB/s)|
|Paraview surface                   |surface_flowdatabladeVALIDATION_Blade_24.vtu|
|                                   |                     (72.5507 MB/s)|
|SU2 ASCII restart                  |restart_flow_databladeVALIDATION_Blade_24.csv|
|                                   |                     (12.7875 MB/s)|
|CSV file                           |surface_flowdatabladeVALIDATION_Blade_24.csv|
|                                   |                     (12.1385 MB/s)|
+-----------------------------------------------------------------------+
+--------------------------------------+
|  Inner_Iter|    Cur_Time|    rms[Rho]|
+--------------------------------------+
|         660|  0.0000e+00|   -4.045072|
|         670|  0.0000e+00|   -4.049503|
|         680|  0.0000e+00|   -4.061355|
|         690|  0.0000e+00|   -4.080852|
|         700|  0.0000e+00|   -4.080074|
+-----------------------------------------------------------------------+
|        File Writing Summary       |              Filename             |
+-----------------------------------------------------------------------+
|SU2 binary restart                 |restart_flow_databladeVALIDATION_Blade_24.dat|
|                                   |                     (6670.81 MB/s)|
|Paraview                           |volume_flow_databladeVALIDATION_Blade_24.vtu|
|                                   |                     (832.617 MB/s)|
|Paraview surface                   |surface_flowdatabladeVALIDATION_Blade_24.vtu|
|                                   |                     (77.7872 MB/s)|
|SU2 ASCII restart                  |restart_flow_databladeVALIDATION_Blade_24.csv|
|                                   |                     (12.6042 MB/s)|
|CSV file                           |surface_flowdatabladeVALIDATION_Blade_24.csv|
|                                   |                     (11.6706 MB/s)|
+-----------------------------------------------------------------------+
+--------------------------------------+
|  Inner_Iter|    Cur_Time|    rms[Rho]|
+--------------------------------------+
|         710|  0.0000e+00|   -4.075490|
|         720|  0.0000e+00|   -4.119635|
|         730|  0.0000e+00|   -4.141668|
|         740|  0.0000e+00|   -4.124111|
|         750|  0.0000e+00|   -4.175312|
+-----------------------------------------------------------------------+
|        File Writing Summary       |              Filename             |
+-----------------------------------------------------------------------+
|SU2 binary restart                 |restart_flow_databladeVALIDATION_Blade_24.dat|
|                                   |                     (1586.99 MB/s)|
|Paraview                           |volume_flow_databladeVALIDATION_Blade_24.vtu|
|                                   |                     (773.663 MB/s)|
|Paraview surface                   |surface_flowdatabladeVALIDATION_Blade_24.vtu|
|                                   |                     (55.9235 MB/s)|
|SU2 ASCII restart                  |restart_flow_databladeVALIDATION_Blade_24.csv|
|                                   |                     (12.9537 MB/s)|
|CSV file                           |surface_flowdatabladeVALIDATION_Blade_24.csv|
|                                   |                     (14.9897 MB/s)|
+-----------------------------------------------------------------------+
+--------------------------------------+
|  Inner_Iter|    Cur_Time|    rms[Rho]|
+--------------------------------------+
|         760|  0.0000e+00|   -4.223644|
|         770|  0.0000e+00|   -4.237380|
|         780|  0.0000e+00|   -4.225693|
|         790|  0.0000e+00|   -4.238794|
|         800|  0.0000e+00|   -4.281029|
+-----------------------------------------------------------------------+
|        File Writing Summary       |              Filename             |
+-----------------------------------------------------------------------+
|SU2 binary restart                 |restart_flow_databladeVALIDATION_Blade_24.dat|
|                                   |                     (1694.05 MB/s)|
|Paraview                           |volume_flow_databladeVALIDATION_Blade_24.vtu|
|                                   |                     (722.942 MB/s)|
|Paraview surface                   |surface_flowdatabladeVALIDATION_Blade_24.vtu|
|                                   |                     (52.2793 MB/s)|
|SU2 ASCII restart                  |restart_flow_databladeVALIDATION_Blade_24.csv|
|                                   |                     (12.8126 MB/s)|
|CSV file                           |surface_flowdatabladeVALIDATION_Blade_24.csv|
|                                   |                     (12.2415 MB/s)|
+-----------------------------------------------------------------------+
+--------------------------------------+
|  Inner_Iter|    Cur_Time|    rms[Rho]|
+--------------------------------------+
|         810|  0.0000e+00|   -4.292509|
|         820|  0.0000e+00|   -4.273079|
|         830|  0.0000e+00|   -4.334617|
|         840|  0.0000e+00|   -4.362499|
|         850|  0.0000e+00|   -4.355096|
+-----------------------------------------------------------------------+
|        File Writing Summary       |              Filename             |
+-----------------------------------------------------------------------+
|SU2 binary restart                 |restart_flow_databladeVALIDATION_Blade_24.dat|
|                                   |                     (6974.75 MB/s)|
|Paraview                           |volume_flow_databladeVALIDATION_Blade_24.vtu|
|                                   |                     (599.698 MB/s)|
|Paraview surface                   |surface_flowdatabladeVALIDATION_Blade_24.vtu|
|                                   |                     (70.8347 MB/s)|
|SU2 ASCII restart                  |restart_flow_databladeVALIDATION_Blade_24.csv|
|                                   |                      (12.728 MB/s)|
|CSV file                           |surface_flowdatabladeVALIDATION_Blade_24.csv|
|                                   |                     (13.2579 MB/s)|
+-----------------------------------------------------------------------+
+--------------------------------------+
|  Inner_Iter|    Cur_Time|    rms[Rho]|
+--------------------------------------+
|         860|  0.0000e+00|   -4.338160|
|         870|  0.0000e+00|   -4.394678|
|         880|  0.0000e+00|   -4.417765|
|         890|  0.0000e+00|   -4.414723|
|         900|  0.0000e+00|   -4.429171|
+-----------------------------------------------------------------------+
|        File Writing Summary       |              Filename             |
+-----------------------------------------------------------------------+
|SU2 binary restart                 |restart_flow_databladeVALIDATION_Blade_24.dat|
|                                   |                     (10935.8 MB/s)|
|Paraview                           |volume_flow_databladeVALIDATION_Blade_24.vtu|
|                                   |                     (832.639 MB/s)|
|Paraview surface                   |surface_flowdatabladeVALIDATION_Blade_24.vtu|
|                                   |                     (73.5153 MB/s)|
|SU2 ASCII restart                  |restart_flow_databladeVALIDATION_Blade_24.csv|
|                                   |                     (12.6841 MB/s)|
|CSV file                           |surface_flowdatabladeVALIDATION_Blade_24.csv|
|                                   |                     (12.9555 MB/s)|
+-----------------------------------------------------------------------+
+--------------------------------------+
|  Inner_Iter|    Cur_Time|    rms[Rho]|
+--------------------------------------+
|         910|  0.0000e+00|   -4.451472|
|         920|  0.0000e+00|   -4.446790|
|         930|  0.0000e+00|   -4.415123|
|         940|  0.0000e+00|   -4.474297|
|         950|  0.0000e+00|   -4.465250|
+-----------------------------------------------------------------------+
|        File Writing Summary       |              Filename             |
+-----------------------------------------------------------------------+
|SU2 binary restart                 |restart_flow_databladeVALIDATION_Blade_24.dat|
|                                   |                     (7454.74 MB/s)|
|Paraview                           |volume_flow_databladeVALIDATION_Blade_24.vtu|
|                                   |                     (955.862 MB/s)|
|Paraview surface                   |surface_flowdatabladeVALIDATION_Blade_24.vtu|
|                                   |                      (77.981 MB/s)|
|SU2 ASCII restart                  |restart_flow_databladeVALIDATION_Blade_24.csv|
|                                   |                     (12.9608 MB/s)|
|CSV file                           |surface_flowdatabladeVALIDATION_Blade_24.csv|
|                                   |                     (10.7903 MB/s)|
+-----------------------------------------------------------------------+
+--------------------------------------+
|  Inner_Iter|    Cur_Time|    rms[Rho]|
+--------------------------------------+
|         960|  0.0000e+00|   -4.481928|
|         970|  0.0000e+00|   -4.494524|
|         980|  0.0000e+00|   -4.510301|
|         990|  0.0000e+00|   -4.505257|
|        1000|  0.0000e+00|   -4.528596|
+-----------------------------------------------------------------------+
|        File Writing Summary       |              Filename             |
+-----------------------------------------------------------------------+
|SU2 binary restart                 |restart_flow_databladeVALIDATION_Blade_24.dat|
|                                   |                        (8228 MB/s)|
|Paraview                           |volume_flow_databladeVALIDATION_Blade_24.vtu|
|                                   |                     (512.748 MB/s)|
|Paraview surface                   |surface_flowdatabladeVALIDATION_Blade_24.vtu|
|                                   |                     (59.3735 MB/s)|
|SU2 ASCII restart                  |restart_flow_databladeVALIDATION_Blade_24.csv|
|                                   |                     (9.48763 MB/s)|
|CSV file                           |surface_flowdatabladeVALIDATION_Blade_24.csv|
|                                   |                     (2.44558 MB/s)|
+-----------------------------------------------------------------------+
+--------------------------------------+
|  Inner_Iter|    Cur_Time|    rms[Rho]|
+--------------------------------------+
|        1010|  0.0000e+00|   -4.531432|
|        1020|  0.0000e+00|   -4.504467|
|        1030|  0.0000e+00|   -4.579181|
|        1040|  0.0000e+00|   -4.570078|
|        1050|  0.0000e+00|   -4.591166|
+-----------------------------------------------------------------------+
|        File Writing Summary       |              Filename             |
+-----------------------------------------------------------------------+
|SU2 binary restart                 |restart_flow_databladeVALIDATION_Blade_24.dat|
|                                   |                     (1531.93 MB/s)|
|Paraview                           |volume_flow_databladeVALIDATION_Blade_24.vtu|
|                                   |                     (209.404 MB/s)|
|Paraview surface                   |surface_flowdatabladeVALIDATION_Blade_24.vtu|
|                                   |                     (28.3941 MB/s)|
|SU2 ASCII restart                  |restart_flow_databladeVALIDATION_Blade_24.csv|
|                                   |                     (9.45816 MB/s)|
|CSV file                           |surface_flowdatabladeVALIDATION_Blade_24.csv|
|                                   |                     (8.61398 MB/s)|
+-----------------------------------------------------------------------+
+--------------------------------------+
|  Inner_Iter|    Cur_Time|    rms[Rho]|
+--------------------------------------+
|        1060|  0.0000e+00|   -4.603985|
|        1070|  0.0000e+00|   -4.601743|
|        1080|  0.0000e+00|   -4.578997|
|        1090|  0.0000e+00|   -4.604993|
|        1100|  0.0000e+00|   -4.606463|
+-----------------------------------------------------------------------+
|        File Writing Summary       |              Filename             |
+-----------------------------------------------------------------------+
|SU2 binary restart                 |restart_flow_databladeVALIDATION_Blade_24.dat|
|                                   |                     (6389.14 MB/s)|
|Paraview                           |volume_flow_databladeVALIDATION_Blade_24.vtu|
|                                   |                      (670.93 MB/s)|
|Paraview surface                   |surface_flowdatabladeVALIDATION_Blade_24.vtu|
|                                   |                     (58.2981 MB/s)|
|SU2 ASCII restart                  |restart_flow_databladeVALIDATION_Blade_24.csv|
|                                   |                     (9.15199 MB/s)|
|CSV file                           |surface_flowdatabladeVALIDATION_Blade_24.csv|
|                                   |                      (7.1117 MB/s)|
+-----------------------------------------------------------------------+
+--------------------------------------+
|  Inner_Iter|    Cur_Time|    rms[Rho]|
+--------------------------------------+
|        1110|  0.0000e+00|   -4.592251|
|        1120|  0.0000e+00|   -4.594669|
|        1130|  0.0000e+00|   -4.618279|
|        1140|  0.0000e+00|   -4.618059|
|        1150|  0.0000e+00|   -4.638028|
+-----------------------------------------------------------------------+
|        File Writing Summary       |              Filename             |
+-----------------------------------------------------------------------+
|SU2 binary restart                 |restart_flow_databladeVALIDATION_Blade_24.dat|
|                                   |                     (335.475 MB/s)|
|Paraview                           |volume_flow_databladeVALIDATION_Blade_24.vtu|
|                                   |                     (289.293 MB/s)|
|Paraview surface                   |surface_flowdatabladeVALIDATION_Blade_24.vtu|
|                                   |                     (22.8018 MB/s)|
|SU2 ASCII restart                  |restart_flow_databladeVALIDATION_Blade_24.csv|
|                                   |                   (0.0387446 MB/s)|
|CSV file                           |surface_flowdatabladeVALIDATION_Blade_24.csv|
|                                   |                     (8.94431 MB/s)|
+-----------------------------------------------------------------------+
+--------------------------------------+
|  Inner_Iter|    Cur_Time|    rms[Rho]|
+--------------------------------------+
|        1160|  0.0000e+00|   -4.666024|
|        1170|  0.0000e+00|   -4.660799|
|        1180|  0.0000e+00|   -4.673023|
|        1190|  0.0000e+00|   -4.711839|
|        1200|  0.0000e+00|   -4.711813|
+-----------------------------------------------------------------------+
|        File Writing Summary       |              Filename             |
+-----------------------------------------------------------------------+
|SU2 binary restart                 |restart_flow_databladeVALIDATION_Blade_24.dat|
|                                   |                     (300.237 MB/s)|
|Paraview                           |volume_flow_databladeVALIDATION_Blade_24.vtu|
|                                   |                     (31.1795 MB/s)|
|Paraview surface                   |surface_flowdatabladeVALIDATION_Blade_24.vtu|
|                                   |                     (43.1042 MB/s)|
|SU2 ASCII restart                  |restart_flow_databladeVALIDATION_Blade_24.csv|
|                                   |                     (9.62961 MB/s)|
|CSV file                           |surface_flowdatabladeVALIDATION_Blade_24.csv|
|                                   |                     (13.1734 MB/s)|
+-----------------------------------------------------------------------+
+--------------------------------------+
|  Inner_Iter|    Cur_Time|    rms[Rho]|
+--------------------------------------+
|        1210|  0.0000e+00|   -4.726734|
|        1220|  0.0000e+00|   -4.757722|
|        1230|  0.0000e+00|   -4.746554|
|        1240|  0.0000e+00|   -4.754288|
|        1250|  0.0000e+00|   -4.783986|
+-----------------------------------------------------------------------+
|        File Writing Summary       |              Filename             |
+-----------------------------------------------------------------------+
|SU2 binary restart                 |restart_flow_databladeVALIDATION_Blade_24.dat|
|                                   |                     (7140.95 MB/s)|
|Paraview                           |volume_flow_databladeVALIDATION_Blade_24.vtu|
|                                   |                     (939.984 MB/s)|
|Paraview surface                   |surface_flowdatabladeVALIDATION_Blade_24.vtu|
|                                   |                     (78.2366 MB/s)|
|SU2 ASCII restart                  |restart_flow_databladeVALIDATION_Blade_24.csv|
|                                   |                     (14.5988 MB/s)|
|CSV file                           |surface_flowdatabladeVALIDATION_Blade_24.csv|
|                                   |                     (15.9289 MB/s)|
+-----------------------------------------------------------------------+
+--------------------------------------+
|  Inner_Iter|    Cur_Time|    rms[Rho]|
+--------------------------------------+
|        1260|  0.0000e+00|   -4.776379|
|        1270|  0.0000e+00|   -4.761312|
|        1280|  0.0000e+00|   -4.780176|
|        1290|  0.0000e+00|   -4.780939|
|        1300|  0.0000e+00|   -4.763956|
+-----------------------------------------------------------------------+
|        File Writing Summary       |              Filename             |
+-----------------------------------------------------------------------+
|SU2 binary restart                 |restart_flow_databladeVALIDATION_Blade_24.dat|
|                                   |                     (7566.07 MB/s)|
|Paraview                           |volume_flow_databladeVALIDATION_Blade_24.vtu|
|                                   |                     (972.339 MB/s)|
|Paraview surface                   |surface_flowdatabladeVALIDATION_Blade_24.vtu|
|                                   |                     (84.3725 MB/s)|
|SU2 ASCII restart                  |restart_flow_databladeVALIDATION_Blade_24.csv|
|                                   |                     (13.1444 MB/s)|
|CSV file                           |surface_flowdatabladeVALIDATION_Blade_24.csv|
|                                   |                     (9.19322 MB/s)|
+-----------------------------------------------------------------------+
+--------------------------------------+
|  Inner_Iter|    Cur_Time|    rms[Rho]|
+--------------------------------------+
|        1310|  0.0000e+00|   -4.770224|
|        1320|  0.0000e+00|   -4.775420|
|        1330|  0.0000e+00|   -4.785568|
|        1340|  0.0000e+00|   -4.792378|
|        1350|  0.0000e+00|   -4.804674|
+-----------------------------------------------------------------------+
|        File Writing Summary       |              Filename             |
+-----------------------------------------------------------------------+
|SU2 binary restart                 |restart_flow_databladeVALIDATION_Blade_24.dat|
|                                   |                     (7830.32 MB/s)|
|Paraview                           |volume_flow_databladeVALIDATION_Blade_24.vtu|
|                                   |                     (892.641 MB/s)|
|Paraview surface                   |surface_flowdatabladeVALIDATION_Blade_24.vtu|
|                                   |                       (84.77 MB/s)|
|SU2 ASCII restart                  |restart_flow_databladeVALIDATION_Blade_24.csv|
|                                   |                     (15.1919 MB/s)|
|CSV file                           |surface_flowdatabladeVALIDATION_Blade_24.csv|
|                                   |                     (16.0037 MB/s)|
+-----------------------------------------------------------------------+
+--------------------------------------+
|  Inner_Iter|    Cur_Time|    rms[Rho]|
+--------------------------------------+
|        1360|  0.0000e+00|   -4.819162|
|        1370|  0.0000e+00|   -4.844032|
|        1380|  0.0000e+00|   -4.855421|
|        1390|  0.0000e+00|   -4.858109|
|        1400|  0.0000e+00|   -4.853401|
+-----------------------------------------------------------------------+
|        File Writing Summary       |              Filename             |
+-----------------------------------------------------------------------+
|SU2 binary restart                 |restart_flow_databladeVALIDATION_Blade_24.dat|
|                                   |                     (12658.3 MB/s)|
|Paraview                           |volume_flow_databladeVALIDATION_Blade_24.vtu|
|                                   |                     (936.235 MB/s)|
|Paraview surface                   |surface_flowdatabladeVALIDATION_Blade_24.vtu|
|                                   |                     (84.1781 MB/s)|
|SU2 ASCII restart                  |restart_flow_databladeVALIDATION_Blade_24.csv|
|                                   |                      (13.662 MB/s)|
|CSV file                           |surface_flowdatabladeVALIDATION_Blade_24.csv|
|                                   |                     (12.5256 MB/s)|
+-----------------------------------------------------------------------+
+--------------------------------------+
|  Inner_Iter|    Cur_Time|    rms[Rho]|
+--------------------------------------+
|        1410|  0.0000e+00|   -4.877967|
|        1420|  0.0000e+00|   -4.889430|
|        1430|  0.0000e+00|   -4.887736|
|        1440|  0.0000e+00|   -4.889634|
|        1450|  0.0000e+00|   -4.912008|
+-----------------------------------------------------------------------+
|        File Writing Summary       |              Filename             |
+-----------------------------------------------------------------------+
|SU2 binary restart                 |restart_flow_databladeVALIDATION_Blade_24.dat|
|                                   |                     (13625.1 MB/s)|
|Paraview                           |volume_flow_databladeVALIDATION_Blade_24.vtu|
|                                   |                      (876.65 MB/s)|
|Paraview surface                   |surface_flowdatabladeVALIDATION_Blade_24.vtu|
|                                   |                     (40.9836 MB/s)|
|SU2 ASCII restart                  |restart_flow_databladeVALIDATION_Blade_24.csv|
|                                   |                     (12.9486 MB/s)|
|CSV file                           |surface_flowdatabladeVALIDATION_Blade_24.csv|
|                                   |                     (11.7874 MB/s)|
+-----------------------------------------------------------------------+
+--------------------------------------+
|  Inner_Iter|    Cur_Time|    rms[Rho]|
+--------------------------------------+
|        1460|  0.0000e+00|   -4.921567|
|        1470|  0.0000e+00|   -4.916341|
|        1480|  0.0000e+00|   -4.938420|
|        1490|  0.0000e+00|   -4.966807|
|        1500|  0.0000e+00|   -4.973297|
+-----------------------------------------------------------------------+
|        File Writing Summary       |              Filename             |
+-----------------------------------------------------------------------+
|SU2 binary restart                 |restart_flow_databladeVALIDATION_Blade_24.dat|
|                                   |                     (7639.51 MB/s)|
|Paraview                           |volume_flow_databladeVALIDATION_Blade_24.vtu|
|                                   |                     (960.028 MB/s)|
|Paraview surface                   |surface_flowdatabladeVALIDATION_Blade_24.vtu|
|                                   |                     (106.869 MB/s)|
|SU2 ASCII restart                  |restart_flow_databladeVALIDATION_Blade_24.csv|
|                                   |                     (15.2684 MB/s)|
|CSV file                           |surface_flowdatabladeVALIDATION_Blade_24.csv|
|                                   |                     (11.3873 MB/s)|
+-----------------------------------------------------------------------+
+--------------------------------------+
|  Inner_Iter|    Cur_Time|    rms[Rho]|
+--------------------------------------+
|        1510|  0.0000e+00|   -4.977063|
|        1520|  0.0000e+00|   -5.005425|
|        1530|  0.0000e+00|   -5.014270|
|        1540|  0.0000e+00|   -5.004989|
|        1550|  0.0000e+00|   -5.006697|
+-----------------------------------------------------------------------+
|        File Writing Summary       |              Filename             |
+-----------------------------------------------------------------------+
|SU2 binary restart                 |restart_flow_databladeVALIDATION_Blade_24.dat|
|                                   |                     (6951.74 MB/s)|
|Paraview                           |volume_flow_databladeVALIDATION_Blade_24.vtu|
|                                   |                     (828.563 MB/s)|
|Paraview surface                   |surface_flowdatabladeVALIDATION_Blade_24.vtu|
|                                   |                     (50.9469 MB/s)|
|SU2 ASCII restart                  |restart_flow_databladeVALIDATION_Blade_24.csv|
|                                   |                     (14.7549 MB/s)|
|CSV file                           |surface_flowdatabladeVALIDATION_Blade_24.csv|
|                                   |                     (11.7446 MB/s)|
+-----------------------------------------------------------------------+
+--------------------------------------+
|  Inner_Iter|    Cur_Time|    rms[Rho]|
+--------------------------------------+
|        1560|  0.0000e+00|   -5.018894|
|        1570|  0.0000e+00|   -5.013806|
|        1580|  0.0000e+00|   -4.988400|
|        1590|  0.0000e+00|   -5.012754|
|        1600|  0.0000e+00|   -5.000513|
+-----------------------------------------------------------------------+
|        File Writing Summary       |              Filename             |
+-----------------------------------------------------------------------+
|SU2 binary restart                 |restart_flow_databladeVALIDATION_Blade_24.dat|
|                                   |                     (10656.2 MB/s)|
|Paraview                           |volume_flow_databladeVALIDATION_Blade_24.vtu|
|                                   |                     (737.415 MB/s)|
|Paraview surface                   |surface_flowdatabladeVALIDATION_Blade_24.vtu|
|                                   |                     (84.3725 MB/s)|
|SU2 ASCII restart                  |restart_flow_databladeVALIDATION_Blade_24.csv|
|                                   |                     (13.4896 MB/s)|
|CSV file                           |surface_flowdatabladeVALIDATION_Blade_24.csv|
|                                   |                     (13.5467 MB/s)|
+-----------------------------------------------------------------------+
+--------------------------------------+
|  Inner_Iter|    Cur_Time|    rms[Rho]|
+--------------------------------------+
|        1610|  0.0000e+00|   -4.996232|
|        1620|  0.0000e+00|   -5.006516|
|        1630|  0.0000e+00|   -5.004402|
|        1640|  0.0000e+00|   -4.987439|
|        1650|  0.0000e+00|   -4.991482|
+-----------------------------------------------------------------------+
|        File Writing Summary       |              Filename             |
+-----------------------------------------------------------------------+
|SU2 binary restart                 |restart_flow_databladeVALIDATION_Blade_24.dat|
|                                   |                     (13589.8 MB/s)|
|Paraview                           |volume_flow_databladeVALIDATION_Blade_24.vtu|
|                                   |                     (952.758 MB/s)|
|Paraview surface                   |surface_flowdatabladeVALIDATION_Blade_24.vtu|
|                                   |                     (63.4086 MB/s)|
|SU2 ASCII restart                  |restart_flow_databladeVALIDATION_Blade_24.csv|
|                                   |                     (13.0368 MB/s)|
|CSV file                           |surface_flowdatabladeVALIDATION_Blade_24.csv|
|                                   |                     (8.59445 MB/s)|
+-----------------------------------------------------------------------+
+--------------------------------------+
|  Inner_Iter|    Cur_Time|    rms[Rho]|
+--------------------------------------+
|        1660|  0.0000e+00|   -5.001118|
|        1670|  0.0000e+00|   -5.003104|
|        1680|  0.0000e+00|   -4.991858|
|        1690|  0.0000e+00|   -5.008703|
|        1700|  0.0000e+00|   -5.032736|
+-----------------------------------------------------------------------+
|        File Writing Summary       |              Filename             |
+-----------------------------------------------------------------------+
|SU2 binary restart                 |restart_flow_databladeVALIDATION_Blade_24.dat|
|                                   |                      (279.61 MB/s)|
|Paraview                           |volume_flow_databladeVALIDATION_Blade_24.vtu|
|                                   |                     (690.563 MB/s)|
|Paraview surface                   |surface_flowdatabladeVALIDATION_Blade_24.vtu|
|                                   |                     (62.2543 MB/s)|
|SU2 ASCII restart                  |restart_flow_databladeVALIDATION_Blade_24.csv|
|                                   |                     (10.6117 MB/s)|
|CSV file                           |surface_flowdatabladeVALIDATION_Blade_24.csv|
|                                   |                      (6.8706 MB/s)|
+-----------------------------------------------------------------------+
+--------------------------------------+
|  Inner_Iter|    Cur_Time|    rms[Rho]|
+--------------------------------------+
|        1710|  0.0000e+00|   -5.059794|
|        1720|  0.0000e+00|   -5.104280|
|        1730|  0.0000e+00|   -5.105854|
|        1740|  0.0000e+00|   -5.130770|
|        1750|  0.0000e+00|   -5.154102|
+-----------------------------------------------------------------------+
|        File Writing Summary       |              Filename             |
+-----------------------------------------------------------------------+
|SU2 binary restart                 |restart_flow_databladeVALIDATION_Blade_24.dat|
|                                   |                     (9654.35 MB/s)|
|Paraview                           |volume_flow_databladeVALIDATION_Blade_24.vtu|
|                                   |                      (658.14 MB/s)|
|Paraview surface                   |surface_flowdatabladeVALIDATION_Blade_24.vtu|
|                                   |                      (52.217 MB/s)|
|SU2 ASCII restart                  |restart_flow_databladeVALIDATION_Blade_24.csv|
|                                   |                       (9.302 MB/s)|
|CSV file                           |surface_flowdatabladeVALIDATION_Blade_24.csv|
|                                   |                     (8.48621 MB/s)|
+-----------------------------------------------------------------------+
+--------------------------------------+
|  Inner_Iter|    Cur_Time|    rms[Rho]|
+--------------------------------------+
|        1760|  0.0000e+00|   -5.148793|
|        1770|  0.0000e+00|   -5.191065|
|        1780|  0.0000e+00|   -5.179100|
|        1790|  0.0000e+00|   -5.206600|
|        1800|  0.0000e+00|   -5.197676|
+-----------------------------------------------------------------------+
|        File Writing Summary       |              Filename             |
+-----------------------------------------------------------------------+
|SU2 binary restart                 |restart_flow_databladeVALIDATION_Blade_24.dat|
|                                   |                     (8510.16 MB/s)|
|Paraview                           |volume_flow_databladeVALIDATION_Blade_24.vtu|
|                                   |                     (617.526 MB/s)|
|Paraview surface                   |surface_flowdatabladeVALIDATION_Blade_24.vtu|
|                                   |                     (48.3022 MB/s)|
|SU2 ASCII restart                  |restart_flow_databladeVALIDATION_Blade_24.csv|
|                                   |                     (10.3177 MB/s)|
|CSV file                           |surface_flowdatabladeVALIDATION_Blade_24.csv|
|                                   |                     (7.71988 MB/s)|
+-----------------------------------------------------------------------+
+--------------------------------------+
|  Inner_Iter|    Cur_Time|    rms[Rho]|
+--------------------------------------+
|        1810|  0.0000e+00|   -5.202710|
|        1820|  0.0000e+00|   -5.230226|
|        1830|  0.0000e+00|   -5.240962|
|        1840|  0.0000e+00|   -5.234371|
|        1850|  0.0000e+00|   -5.220232|
+-----------------------------------------------------------------------+
|        File Writing Summary       |              Filename             |
+-----------------------------------------------------------------------+
|SU2 binary restart                 |restart_flow_databladeVALIDATION_Blade_24.dat|
|                                   |                     (6182.79 MB/s)|
|Paraview                           |volume_flow_databladeVALIDATION_Blade_24.vtu|
|                                   |                     (151.761 MB/s)|
|Paraview surface                   |surface_flowdatabladeVALIDATION_Blade_24.vtu|
|                                   |                     (55.1508 MB/s)|
|SU2 ASCII restart                  |restart_flow_databladeVALIDATION_Blade_24.csv|
|                                   |                     (9.72223 MB/s)|
|CSV file                           |surface_flowdatabladeVALIDATION_Blade_24.csv|
|                                   |                     (5.79378 MB/s)|
+-----------------------------------------------------------------------+
+--------------------------------------+
|  Inner_Iter|    Cur_Time|    rms[Rho]|
+--------------------------------------+
|        1860|  0.0000e+00|   -5.242616|
|        1870|  0.0000e+00|   -5.227983|
|        1880|  0.0000e+00|   -5.238377|
|        1890|  0.0000e+00|   -5.246743|
|        1900|  0.0000e+00|   -5.229639|
+-----------------------------------------------------------------------+
|        File Writing Summary       |              Filename             |
+-----------------------------------------------------------------------+
|SU2 binary restart                 |restart_flow_databladeVALIDATION_Blade_24.dat|
|                                   |                     (11376.8 MB/s)|
|Paraview                           |volume_flow_databladeVALIDATION_Blade_24.vtu|
|                                   |                     (692.192 MB/s)|
|Paraview surface                   |surface_flowdatabladeVALIDATION_Blade_24.vtu|
|                                   |                     (70.0139 MB/s)|
|SU2 ASCII restart                  |restart_flow_databladeVALIDATION_Blade_24.csv|
|                                   |                     (9.07711 MB/s)|
|CSV file                           |surface_flowdatabladeVALIDATION_Blade_24.csv|
|                                   |                     (7.57397 MB/s)|
+-----------------------------------------------------------------------+
+--------------------------------------+
|  Inner_Iter|    Cur_Time|    rms[Rho]|
+--------------------------------------+
|        1910|  0.0000e+00|   -5.240515|
|        1920|  0.0000e+00|   -5.249563|
|        1930|  0.0000e+00|   -5.262284|
|        1940|  0.0000e+00|   -5.265297|
|        1950|  0.0000e+00|   -5.252093|
+-----------------------------------------------------------------------+
|        File Writing Summary       |              Filename             |
+-----------------------------------------------------------------------+
|SU2 binary restart                 |restart_flow_databladeVALIDATION_Blade_24.dat|
|                                   |                     (6584.59 MB/s)|
|Paraview                           |volume_flow_databladeVALIDATION_Blade_24.vtu|
|                                   |                     (813.058 MB/s)|
|Paraview surface                   |surface_flowdatabladeVALIDATION_Blade_24.vtu|
|                                   |                     (64.3068 MB/s)|
|SU2 ASCII restart                  |restart_flow_databladeVALIDATION_Blade_24.csv|
|                                   |                      (10.304 MB/s)|
|CSV file                           |surface_flowdatabladeVALIDATION_Blade_24.csv|
|                                   |                     (7.34666 MB/s)|
+-----------------------------------------------------------------------+
+--------------------------------------+
|  Inner_Iter|    Cur_Time|    rms[Rho]|
+--------------------------------------+
|        1960|  0.0000e+00|   -5.269257|
|        1970|  0.0000e+00|   -5.304082|
|        1980|  0.0000e+00|   -5.314901|
|        1990|  0.0000e+00|   -5.335593|
|        2000|  0.0000e+00|   -5.347601|
+-----------------------------------------------------------------------+
|        File Writing Summary       |              Filename             |
+-----------------------------------------------------------------------+
|SU2 binary restart                 |restart_flow_databladeVALIDATION_Blade_24.dat|
|                                   |                     (6513.26 MB/s)|
|Paraview                           |volume_flow_databladeVALIDATION_Blade_24.vtu|
|                                   |                     (779.687 MB/s)|
|Paraview surface                   |surface_flowdatabladeVALIDATION_Blade_24.vtu|
|                                   |                     (64.9547 MB/s)|
|SU2 ASCII restart                  |restart_flow_databladeVALIDATION_Blade_24.csv|
|                                   |                      (9.4069 MB/s)|
|CSV file                           |surface_flowdatabladeVALIDATION_Blade_24.csv|
|                                   |                     (6.77125 MB/s)|
+-----------------------------------------------------------------------+
+--------------------------------------+
|  Inner_Iter|    Cur_Time|    rms[Rho]|
+--------------------------------------+
|        2010|  0.0000e+00|   -5.348487|
|        2020|  0.0000e+00|   -5.356176|
|        2030|  0.0000e+00|   -5.371680|
|        2040|  0.0000e+00|   -5.372066|
|        2050|  0.0000e+00|   -5.366817|
+-----------------------------------------------------------------------+
|        File Writing Summary       |              Filename             |
+-----------------------------------------------------------------------+
|SU2 binary restart                 |restart_flow_databladeVALIDATION_Blade_24.dat|
|                                   |                     (5310.53 MB/s)|
|Paraview                           |volume_flow_databladeVALIDATION_Blade_24.vtu|
|                                   |                     (684.208 MB/s)|
|Paraview surface                   |surface_flowdatabladeVALIDATION_Blade_24.vtu|
|                                   |                     (63.5306 MB/s)|
|SU2 ASCII restart                  |restart_flow_databladeVALIDATION_Blade_24.csv|
|                                   |                      (9.1881 MB/s)|
|CSV file                           |surface_flowdatabladeVALIDATION_Blade_24.csv|
|                                   |                     (8.24096 MB/s)|
+-----------------------------------------------------------------------+
+--------------------------------------+
|  Inner_Iter|    Cur_Time|    rms[Rho]|
+--------------------------------------+
|        2060|  0.0000e+00|   -5.395476|
|        2070|  0.0000e+00|   -5.406854|
|        2080|  0.0000e+00|   -5.406311|
|        2090|  0.0000e+00|   -5.403054|
|        2100|  0.0000e+00|   -5.424577|
+-----------------------------------------------------------------------+
|        File Writing Summary       |              Filename             |
+-----------------------------------------------------------------------+
|SU2 binary restart                 |restart_flow_databladeVALIDATION_Blade_24.dat|
|                                   |                     (6682.48 MB/s)|
|Paraview                           |volume_flow_databladeVALIDATION_Blade_24.vtu|
|                                   |                     (730.513 MB/s)|
|Paraview surface                   |surface_flowdatabladeVALIDATION_Blade_24.vtu|
|                                   |                     (56.5041 MB/s)|
|SU2 ASCII restart                  |restart_flow_databladeVALIDATION_Blade_24.csv|
|                                   |                      (10.358 MB/s)|
|CSV file                           |surface_flowdatabladeVALIDATION_Blade_24.csv|
|                                   |                     (8.17702 MB/s)|
+-----------------------------------------------------------------------+
+--------------------------------------+
|  Inner_Iter|    Cur_Time|    rms[Rho]|
+--------------------------------------+
|        2110|  0.0000e+00|   -5.421821|
|        2120|  0.0000e+00|   -5.379869|
|        2130|  0.0000e+00|   -5.419383|
|        2140|  0.0000e+00|   -5.420849|
|        2150|  0.0000e+00|   -5.391078|
+-----------------------------------------------------------------------+
|        File Writing Summary       |              Filename             |
+-----------------------------------------------------------------------+
|SU2 binary restart                 |restart_flow_databladeVALIDATION_Blade_24.dat|
|                                   |                     (11642.6 MB/s)|
|Paraview                           |volume_flow_databladeVALIDATION_Blade_24.vtu|
|                                   |                     (765.536 MB/s)|
|Paraview surface                   |surface_flowdatabladeVALIDATION_Blade_24.vtu|
|                                   |                     (60.1227 MB/s)|
|SU2 ASCII restart                  |restart_flow_databladeVALIDATION_Blade_24.csv|
|                                   |                     (9.22951 MB/s)|
|CSV file                           |surface_flowdatabladeVALIDATION_Blade_24.csv|
|                                   |                     (8.56095 MB/s)|
+-----------------------------------------------------------------------+
+--------------------------------------+
|  Inner_Iter|    Cur_Time|    rms[Rho]|
+--------------------------------------+
|        2160|  0.0000e+00|   -5.423849|
|        2170|  0.0000e+00|   -5.458304|
|        2180|  0.0000e+00|   -5.462226|
|        2190|  0.0000e+00|   -5.423796|
|        2200|  0.0000e+00|   -5.440186|
+-----------------------------------------------------------------------+
|        File Writing Summary       |              Filename             |
+-----------------------------------------------------------------------+
|SU2 binary restart                 |restart_flow_databladeVALIDATION_Blade_24.dat|
|                                   |                     (9986.06 MB/s)|
|Paraview                           |volume_flow_databladeVALIDATION_Blade_24.vtu|
|                                   |                     (740.551 MB/s)|
|Paraview surface                   |surface_flowdatabladeVALIDATION_Blade_24.vtu|
|                                   |                     (66.3126 MB/s)|
|SU2 ASCII restart                  |restart_flow_databladeVALIDATION_Blade_24.csv|
|                                   |                     (9.06231 MB/s)|
|CSV file                           |surface_flowdatabladeVALIDATION_Blade_24.csv|
|                                   |                     (8.28432 MB/s)|
+-----------------------------------------------------------------------+
+--------------------------------------+
|  Inner_Iter|    Cur_Time|    rms[Rho]|
+--------------------------------------+
|        2210|  0.0000e+00|   -5.457925|
|        2220|  0.0000e+00|   -5.482921|
|        2230|  0.0000e+00|   -5.475070|
|        2240|  0.0000e+00|   -5.418517|
|        2250|  0.0000e+00|   -5.498677|
+-----------------------------------------------------------------------+
|        File Writing Summary       |              Filename             |
+-----------------------------------------------------------------------+
|SU2 binary restart                 |restart_flow_databladeVALIDATION_Blade_24.dat|
|                                   |                     (6335.51 MB/s)|
|Paraview                           |volume_flow_databladeVALIDATION_Blade_24.vtu|
|                                   |                     (712.199 MB/s)|
|Paraview surface                   |surface_flowdatabladeVALIDATION_Blade_24.vtu|
|                                   |                     (45.3724 MB/s)|
|SU2 ASCII restart                  |restart_flow_databladeVALIDATION_Blade_24.csv|
|                                   |                     (9.98871 MB/s)|
|CSV file                           |surface_flowdatabladeVALIDATION_Blade_24.csv|
|                                   |                     (6.47369 MB/s)|
+-----------------------------------------------------------------------+
+--------------------------------------+
|  Inner_Iter|    Cur_Time|    rms[Rho]|
+--------------------------------------+
|        2260|  0.0000e+00|   -5.536006|
|        2270|  0.0000e+00|   -5.532596|
|        2280|  0.0000e+00|   -5.492476|
|        2290|  0.0000e+00|   -5.586646|
|        2300|  0.0000e+00|   -5.599295|
+-----------------------------------------------------------------------+
|        File Writing Summary       |              Filename             |
+-----------------------------------------------------------------------+
|SU2 binary restart                 |restart_flow_databladeVALIDATION_Blade_24.dat|
|                                   |                     (10608.2 MB/s)|
|Paraview                           |volume_flow_databladeVALIDATION_Blade_24.vtu|
|                                   |                     (627.193 MB/s)|
|Paraview surface                   |surface_flowdatabladeVALIDATION_Blade_24.vtu|
|                                   |                      (63.239 MB/s)|
|SU2 ASCII restart                  |restart_flow_databladeVALIDATION_Blade_24.csv|
|                                   |                     (9.08552 MB/s)|
|CSV file                           |surface_flowdatabladeVALIDATION_Blade_24.csv|
|                                   |                     (7.98964 MB/s)|
+-----------------------------------------------------------------------+
+--------------------------------------+
|  Inner_Iter|    Cur_Time|    rms[Rho]|
+--------------------------------------+
|        2310|  0.0000e+00|   -5.551679|
|        2320|  0.0000e+00|   -5.531424|
|        2330|  0.0000e+00|   -5.582540|
|        2340|  0.0000e+00|   -5.569894|
|        2350|  0.0000e+00|   -5.503905|
+-----------------------------------------------------------------------+
|        File Writing Summary       |              Filename             |
+-----------------------------------------------------------------------+
|SU2 binary restart                 |restart_flow_databladeVALIDATION_Blade_24.dat|
|                                   |                     (10075.5 MB/s)|
|Paraview                           |volume_flow_databladeVALIDATION_Blade_24.vtu|
[...]
+-----------------------------------------------------------------------+
|SU2 binary restart                 |restart_flow_databladeVALIDATION_Blade_24.dat|
|                                   |                     (1176.68 MB/s)|
|Paraview                           |volume_flow_databladeVALIDATION_Blade_24.vtu|
|                                   |                     (737.615 MB/s)|
|Paraview surface                   |surface_flowdatabladeVALIDATION_Blade_24.vtu|
|                                   |                     (33.8651 MB/s)|
|SU2 ASCII restart                  |restart_flow_databladeVALIDATION_Blade_24.csv|
|                                   |                     (20.5235 MB/s)|
|CSV file                           |surface_flowdatabladeVALIDATION_Blade_24.csv|
|                                   |                     (21.0031 MB/s)|
+-----------------------------------------------------------------------+
+--------------------------------------+
|  Inner_Iter|    Cur_Time|    rms[Rho]|
+--------------------------------------+
|        3560|  0.0000e+00|   -6.633145|
|        3570|  0.0000e+00|   -6.614397|
|        3580|  0.0000e+00|   -6.631324|
|        3590|  0.0000e+00|   -6.661558|
|        3600|  0.0000e+00|   -6.657943|
+-----------------------------------------------------------------------+
|        File Writing Summary       |              Filename             |
+-----------------------------------------------------------------------+
|SU2 binary restart                 |restart_flow_databladeVALIDATION_Blade_24.dat|
|                                   |                     (12610.5 MB/s)|
|Paraview                           |volume_flow_databladeVALIDATION_Blade_24.vtu|
|                                   |                     (856.066 MB/s)|
|Paraview surface                   |surface_flowdatabladeVALIDATION_Blade_24.vtu|
|                                   |                     (51.3637 MB/s)|
|SU2 ASCII restart                  |restart_flow_databladeVALIDATION_Blade_24.csv|
|                                   |                     (20.6079 MB/s)|
|CSV file                           |surface_flowdatabladeVALIDATION_Blade_24.csv|
|                                   |                     (18.6102 MB/s)|
+-----------------------------------------------------------------------+
+--------------------------------------+
|  Inner_Iter|    Cur_Time|    rms[Rho]|
+--------------------------------------+
|        3610|  0.0000e+00|   -6.645601|
|        3620|  0.0000e+00|   -6.688098|
|        3630|  0.0000e+00|   -6.694244|
|        3640|  0.0000e+00|   -6.673257|
|        3650|  0.0000e+00|   -6.676779|
+-----------------------------------------------------------------------+
|        File Writing Summary       |              Filename             |
+-----------------------------------------------------------------------+
|SU2 binary restart                 |restart_flow_databladeVALIDATION_Blade_24.dat|
|                                   |                     (6814.07 MB/s)|
|Paraview                           |volume_flow_databladeVALIDATION_Blade_24.vtu|
|                                   |                        (1110 MB/s)|
|Paraview surface                   |surface_flowdatabladeVALIDATION_Blade_24.vtu|
|                                   |                     (97.3298 MB/s)|
|SU2 ASCII restart                  |restart_flow_databladeVALIDATION_Blade_24.csv|
|                                   |                     (20.4617 MB/s)|
|CSV file                           |surface_flowdatabladeVALIDATION_Blade_24.csv|
|                                   |                     (20.8387 MB/s)|
+-----------------------------------------------------------------------+
+--------------------------------------+
|  Inner_Iter|    Cur_Time|    rms[Rho]|
+--------------------------------------+
|        3660|  0.0000e+00|   -6.701061|
|        3670|  0.0000e+00|   -6.695349|
|        3680|  0.0000e+00|   -6.651717|
|        3690|  0.0000e+00|   -6.697005|
|        3700|  0.0000e+00|   -6.700069|
+-----------------------------------------------------------------------+
|        File Writing Summary       |              Filename             |
+-----------------------------------------------------------------------+
|SU2 binary restart                 |restart_flow_databladeVALIDATION_Blade_24.dat|
|                                   |                     (11319.2 MB/s)|
|Paraview                           |volume_flow_databladeVALIDATION_Blade_24.vtu|
|                                   |                     (906.928 MB/s)|
|Paraview surface                   |surface_flowdatabladeVALIDATION_Blade_24.vtu|
|                                   |                      (92.704 MB/s)|
|SU2 ASCII restart                  |restart_flow_databladeVALIDATION_Blade_24.csv|
|                                   |                     (19.1898 MB/s)|
|CSV file                           |surface_flowdatabladeVALIDATION_Blade_24.csv|
|                                   |                     (19.5731 MB/s)|
+-----------------------------------------------------------------------+
+--------------------------------------+
|  Inner_Iter|    Cur_Time|    rms[Rho]|
+--------------------------------------+
|        3710|  0.0000e+00|   -6.689050|
|        3720|  0.0000e+00|   -6.672754|
|        3730|  0.0000e+00|   -6.718395|
|        3740|  0.0000e+00|   -6.716818|
|        3750|  0.0000e+00|   -6.703072|
+-----------------------------------------------------------------------+
|        File Writing Summary       |              Filename             |
+-----------------------------------------------------------------------+
|SU2 binary restart                 |restart_flow_databladeVALIDATION_Blade_24.dat|
|                                   |                     (13123.9 MB/s)|
|Paraview                           |volume_flow_databladeVALIDATION_Blade_24.vtu|
|                                   |                     (1072.23 MB/s)|
|Paraview surface                   |surface_flowdatabladeVALIDATION_Blade_24.vtu|
|                                   |                     (101.711 MB/s)|
|SU2 ASCII restart                  |restart_flow_databladeVALIDATION_Blade_24.csv|
|                                   |                     (20.2893 MB/s)|
|CSV file                           |surface_flowdatabladeVALIDATION_Blade_24.csv|
|                                   |                     (18.8409 MB/s)|
+-----------------------------------------------------------------------+
+--------------------------------------+
|  Inner_Iter|    Cur_Time|    rms[Rho]|
+--------------------------------------+
|        3760|  0.0000e+00|   -6.736338|
|        3770|  0.0000e+00|   -6.754346|
|        3780|  0.0000e+00|   -6.753801|
|        3790|  0.0000e+00|   -6.714256|
|        3800|  0.0000e+00|   -6.755723|
+-----------------------------------------------------------------------+
|        File Writing Summary       |              Filename             |
+-----------------------------------------------------------------------+
|SU2 binary restart                 |restart_flow_databladeVALIDATION_Blade_24.dat|
|                                   |                     (12355.6 MB/s)|
|Paraview                           |volume_flow_databladeVALIDATION_Blade_24.vtu|
|                                   |                     (764.399 MB/s)|
|Paraview surface                   |surface_flowdatabladeVALIDATION_Blade_24.vtu|
|                                   |                     (45.3672 MB/s)|
|SU2 ASCII restart                  |restart_flow_databladeVALIDATION_Blade_24.csv|
|                                   |                     (20.3938 MB/s)|
|CSV file                           |surface_flowdatabladeVALIDATION_Blade_24.csv|
|                                   |                      (20.096 MB/s)|
+-----------------------------------------------------------------------+
+--------------------------------------+
|  Inner_Iter|    Cur_Time|    rms[Rho]|
+--------------------------------------+
|        3810|  0.0000e+00|   -6.750793|
|        3820|  0.0000e+00|   -6.726377|
|        3830|  0.0000e+00|   -6.749120|
|        3840|  0.0000e+00|   -6.762670|
|        3850|  0.0000e+00|   -6.724903|
+-----------------------------------------------------------------------+
|        File Writing Summary       |              Filename             |
+-----------------------------------------------------------------------+
|SU2 binary restart                 |restart_flow_databladeVALIDATION_Blade_24.dat|
|                                   |                       (12014 MB/s)|
|Paraview                           |volume_flow_databladeVALIDATION_Blade_24.vtu|
|                                   |                      (612.84 MB/s)|
|Paraview surface                   |surface_flowdatabladeVALIDATION_Blade_24.vtu|
|                                   |                       (97.76 MB/s)|
|SU2 ASCII restart                  |restart_flow_databladeVALIDATION_Blade_24.csv|
|                                   |                     (20.5809 MB/s)|
|CSV file                           |surface_flowdatabladeVALIDATION_Blade_24.csv|
|                                   |                     (21.5957 MB/s)|
+-----------------------------------------------------------------------+
+--------------------------------------+
|  Inner_Iter|    Cur_Time|    rms[Rho]|
+--------------------------------------+
|        3860|  0.0000e+00|   -6.752893|
|        3870|  0.0000e+00|   -6.780521|
|        3880|  0.0000e+00|   -6.813936|
|        3890|  0.0000e+00|   -6.843883|
|        3900|  0.0000e+00|   -6.852612|
+-----------------------------------------------------------------------+
|        File Writing Summary       |              Filename             |
+-----------------------------------------------------------------------+
|SU2 binary restart                 |restart_flow_databladeVALIDATION_Blade_24.dat|
|                                   |                     (13129.6 MB/s)|
|Paraview                           |volume_flow_databladeVALIDATION_Blade_24.vtu|
|                                   |                     (898.492 MB/s)|
|Paraview surface                   |surface_flowdatabladeVALIDATION_Blade_24.vtu|
|                                   |                     (63.7794 MB/s)|
|SU2 ASCII restart                  |restart_flow_databladeVALIDATION_Blade_24.csv|
|                                   |                     (20.9172 MB/s)|
|CSV file                           |surface_flowdatabladeVALIDATION_Blade_24.csv|
|                                   |                     (20.6303 MB/s)|
+-----------------------------------------------------------------------+
+--------------------------------------+
|  Inner_Iter|    Cur_Time|    rms[Rho]|
+--------------------------------------+
|        3910|  0.0000e+00|   -6.811263|
|        3920|  0.0000e+00|   -6.815755|
|        3930|  0.0000e+00|   -6.808815|
|        3940|  0.0000e+00|   -6.862443|
|        3950|  0.0000e+00|   -6.875285|
+-----------------------------------------------------------------------+
|        File Writing Summary       |              Filename             |
+-----------------------------------------------------------------------+
|SU2 binary restart                 |restart_flow_databladeVALIDATION_Blade_24.dat|
|                                   |                     (13354.3 MB/s)|
|Paraview                           |volume_flow_databladeVALIDATION_Blade_24.vtu|
|                                   |                     (1021.72 MB/s)|
|Paraview surface                   |surface_flowdatabladeVALIDATION_Blade_24.vtu|
|                                   |                     (61.8391 MB/s)|
|SU2 ASCII restart                  |restart_flow_databladeVALIDATION_Blade_24.csv|
|                                   |                     (20.5846 MB/s)|
|CSV file                           |surface_flowdatabladeVALIDATION_Blade_24.csv|
|                                   |                     (20.1275 MB/s)|
+-----------------------------------------------------------------------+
+--------------------------------------+
|  Inner_Iter|    Cur_Time|    rms[Rho]|
+--------------------------------------+
|        3960|  0.0000e+00|   -6.861403|
|        3970|  0.0000e+00|   -6.849747|
|        3980|  0.0000e+00|   -6.901605|
|        3990|  0.0000e+00|   -6.904202|
|        4000|  0.0000e+00|   -6.870776|
+-----------------------------------------------------------------------+
|        File Writing Summary       |              Filename             |
+-----------------------------------------------------------------------+
|SU2 binary restart                 |restart_flow_databladeVALIDATION_Blade_24.dat|
|                                   |                     (13916.7 MB/s)|
|Paraview                           |volume_flow_databladeVALIDATION_Blade_24.vtu|
|                                   |                     (1035.35 MB/s)|
|Paraview surface                   |surface_flowdatabladeVALIDATION_Blade_24.vtu|
|                                   |                     (90.1458 MB/s)|
|SU2 ASCII restart                  |restart_flow_databladeVALIDATION_Blade_24.csv|
|                                   |                     (20.2593 MB/s)|
|CSV file                           |surface_flowdatabladeVALIDATION_Blade_24.csv|
|                                   |                     (20.4758 MB/s)|
+-----------------------------------------------------------------------+
+--------------------------------------+
|  Inner_Iter|    Cur_Time|    rms[Rho]|
+--------------------------------------+
|        4010|  0.0000e+00|   -6.907022|
|        4020|  0.0000e+00|   -6.933233|
|        4030|  0.0000e+00|   -6.924992|
|        4040|  0.0000e+00|   -6.877575|
|        4050|  0.0000e+00|   -6.935490|
+-----------------------------------------------------------------------+
|        File Writing Summary       |              Filename             |
+-----------------------------------------------------------------------+
|SU2 binary restart                 |restart_flow_databladeVALIDATION_Blade_24.dat|
|                                   |                     (11393.1 MB/s)|
|Paraview                           |volume_flow_databladeVALIDATION_Blade_24.vtu|
|                                   |                     (1039.25 MB/s)|
|Paraview surface                   |surface_flowdatabladeVALIDATION_Blade_24.vtu|
|                                   |                     (56.7034 MB/s)|
|SU2 ASCII restart                  |restart_flow_databladeVALIDATION_Blade_24.csv|
|                                   |                     (20.4286 MB/s)|
|CSV file                           |surface_flowdatabladeVALIDATION_Blade_24.csv|
|                                   |                     (20.7864 MB/s)|
+-----------------------------------------------------------------------+
+--------------------------------------+
|  Inner_Iter|    Cur_Time|    rms[Rho]|
+--------------------------------------+
|        4060|  0.0000e+00|   -6.928530|
|        4070|  0.0000e+00|   -6.882087|
|        4080|  0.0000e+00|   -6.912233|
|        4090|  0.0000e+00|   -6.931231|
|        4100|  0.0000e+00|   -6.926195|
+-----------------------------------------------------------------------+
|        File Writing Summary       |              Filename             |
+-----------------------------------------------------------------------+
|SU2 binary restart                 |restart_flow_databladeVALIDATION_Blade_24.dat|
|                                   |                     (13591.8 MB/s)|
|Paraview                           |volume_flow_databladeVALIDATION_Blade_24.vtu|
|                                   |                     (1011.65 MB/s)|
|Paraview surface                   |surface_flowdatabladeVALIDATION_Blade_24.vtu|
|                                   |                     (89.0997 MB/s)|
|SU2 ASCII restart                  |restart_flow_databladeVALIDATION_Blade_24.csv|
|                                   |                     (20.5753 MB/s)|
|CSV file                           |surface_flowdatabladeVALIDATION_Blade_24.csv|
|                                   |                      (19.663 MB/s)|
+-----------------------------------------------------------------------+
+--------------------------------------+
|  Inner_Iter|    Cur_Time|    rms[Rho]|
+--------------------------------------+
|        4110|  0.0000e+00|   -6.875358|
|        4120|  0.0000e+00|   -6.951193|
|        4130|  0.0000e+00|   -6.968772|
|        4140|  0.0000e+00|   -6.963913|
|        4144|  0.0000e+00|   -7.004365|

----------------------------- Solver Exit -------------------------------
All convergence criteria satisfied.
+-----------------------------------------------------------------------+
|      Convergence Field     |     Value    |   Criterion  |  Converged |
+-----------------------------------------------------------------------+
|                    rms[Rho]|      -7.00436|          < -7|         Yes|
+-----------------------------------------------------------------------+
-------------------------------------------------------------------------
+-----------------------------------------------------------------------+
|        File Writing Summary       |              Filename             |
+-----------------------------------------------------------------------+
|SU2 binary restart                 |restart_flow_databladeVALIDATION_Blade_24.dat|
|                                   |                     (13671.8 MB/s)|
|Paraview                           |volume_flow_databladeVALIDATION_Blade_24.vtu|
|                                   |                     (594.173 MB/s)|
|Paraview surface                   |surface_flowdatabladeVALIDATION_Blade_24.vtu|
|                                   |                     (49.9236 MB/s)|
|SU2 ASCII restart                  |restart_flow_databladeVALIDATION_Blade_24.csv|
|                                   |                     (19.9529 MB/s)|
|CSV file                           |surface_flowdatabladeVALIDATION_Blade_24.csv|
|                                   |                     (18.3907 MB/s)|
+-----------------------------------------------------------------------+

--------------------------- Finalizing Solver ---------------------------
Deleted CNumerics container.
Deleted CIntegration container.
Deleted CSolver container.
Deleted CIteration container.
Deleted CInterface container.
Deleted CGeometry container.
Deleted CFreeFormDefBox class.
Deleted CSurfaceMovement class.
Deleted CVolumetricMovement class.
Deleted CConfig container.
Deleted nInst container.
Deleted COutput class.
-------------------------------------------------------------------------


-------------------------- Performance Summary --------------------------
Simulation totals:
   Wall-clock time (hrs):     1.37139 |            Core-hrs:     16.4566
                   Cores:          12 |          DOFs/point:           5
             Points/core:     5784.75 |   Ghost points/core:     174.417
 Ghost/Owned Point Ratio:   0.0301511 | 

Preprocessing phase:
       Preproc. Time (s):    0.751523 |   Preproc. Time (%):   0.0152223

Compute phase:
        Compute Time (s):     4933.41 |    Compute Time (%):     99.9274
         Iteration count:        4145 |         Avg. s/iter:     1.19021
     Core-s/iter/Mpoints:     199.727 |           Mpoints/s:    0.060082

Output phase:
         Output Time (s):     2.83149 |     Output Time (%):   0.0573526
            Output count:           1 |       Avg. s/output:     2.83149
 Restart Aggr. BW (MB/s):      752904 |           MB/s/core:       62742
-------------------------------------------------------------------------


------------------------- Exit Success (SU2_CFD) ------------------------

