
-------------------------------------------------------------------------
|    ___ _   _ ___                                                      |
|   / __| | | |_  )   Release 8.0.1 "Harrier"                           |
|   \__ \ |_| |/ /                                                      |
|   |___/\___//___|   Suite (Computational Fluid Dynamics Code)         |
|                                                                       |
-------------------------------------------------------------------------
| SU2 Project Website: https://su2code.github.io                        |
|                                                                       |
| The SU2 Project is maintained by the SU2 Foundation                   |
| (http://su2foundation.org)                                            |
-------------------------------------------------------------------------
| Copyright 2012-2024, SU2 Contributors                                 |
|                                                                       |
| SU2 is free software; you can redistribute it and/or                  |
| modify it under the terms of the GNU Lesser General Public            |
| License as published by the Free Software Foundation; either          |
| version 2.1 of the License, or (at your option) any later version.    |
|                                                                       |
| SU2 is distributed in the hope that it will be useful,                |
| but WITHOUT ANY WARRANTY; without even the implied warranty of        |
| MERCHANTABILITY or FITNESS FOR A PARTICULAR PURPOSE. See the GNU      |
| Lesser General Public License for more details.                       |
|                                                                       |
| You should have received a copy of the GNU Lesser General Public      |
| License along with SU2. If not, see <http://www.gnu.org/licenses/>.   |
-------------------------------------------------------------------------

Parsing config file for zone 0

----------------- Physical Case Definition ( Zone 0 ) -------------------
Compressible RANS equations.
Turbulence model: Spalart-Allmaras-noft2-BCM
Hybrid RANS/LES: No Hybrid RANS/LES
Mach number: 0.667.
Angle of attack (AoA): -37 deg, and angle of sideslip (AoS): 0 deg.
Reynolds number: 600000. Reference length 1.0018.
No restart solution, use the values at infinity (freestream).
Dimensional simulation.
The reference area will be computed using y(2D) or z(3D) projection.
The semi-span will be computed using the max y(3D) value.
The reference length is 1.0018 m.
Reference origin for moment evaluation is (0, 0, 0).
Surface(s) where the force coefficients are evaluated: blade1.

Surface(s) plotted in the output file: blade1.
Surface(s) to be analyzed in detail: inlet, outlet, blade1.
Input mesh file name: cascade2D_databladeVALIDATION_Blade_23.su2

--------------- Space Numerical Integration ( Zone 0 ) ------------------
Jameson-Schmidt-Turkel scheme (2nd order in space) for the flow inviscid terms.
JST viscous coefficients (2nd & 4th): 0.5, 0.02.
The method includes a grid stretching correction (p = 0.3).
Scalar upwind solver for the turbulence model.
First order integration in space.
Average of gradients with correction (viscous flow terms).
Average of gradients with correction (viscous turbulence terms).
Gradient for upwind reconstruction: inverse-distance weighted Least-Squares.
Gradient for viscous and source terms: inverse-distance weighted Least-Squares.

--------------- Time Numerical Integration  ( Zone 0 ) ------------------
Local time stepping (steady state simulation).
Euler implicit method for the flow equations.
FGMRES is used for solving the linear system.
Using a LU-SGS preconditioning.
Convergence criteria of the linear solver: 0.0001.
Max number of linear iterations: 10.
V Multigrid Cycle, with 3 multigrid levels.
Damping factor for the residual restriction: 0.75.
Damping factor for the correction prolongation: 0.75.
CFL adaptation. Factor down: 0.1, factor up: 1.2,
                lower limit: 0.1, upper limit: 100,
                acceptable linear residual: 0.001.
+-------------------------------------------+
|  MG Level| Presmooth|PostSmooth|CorrectSmo|
+-------------------------------------------+
|         0|         1|         0|         1|
|         1|         2|         2|         2|
|         2|         3|         3|         3|
|         3|         3|         0|         0|
+-------------------------------------------+
Courant-Friedrichs-Lewy number:       12
Euler implicit time integration for the turbulence model.

------------------ Convergence Criteria  ( Zone 0 ) ---------------------
Maximum number of solver subiterations: 7000.
Begin convergence monitoring at iteration 500.
Residual minimum value: 1e-7.
Cauchy series min. value: 1e-10.
Number of Cauchy elements: 100.
Begin windowed time average at iteration 0.

-------------------- Output Information ( Zone 0 ) ----------------------
File writing frequency: 
+------------------------------------+
|                     File| Frequency|
+------------------------------------+
|                  RESTART|        50|
|                 PARAVIEW|        50|
|         SURFACE_PARAVIEW|        50|
|                      CSV|        50|
|              SURFACE_CSV|        50|
+------------------------------------+
Writing the convergence history file every 1 inner iterations.
Writing the screen convergence history every 10 inner iterations.
The tabular file format is CSV (.csv).
Convergence history file name: history_databladeVALIDATION_Blade_23.
Forces breakdown file name: forces_breakdown.dat.
Surface file name: surface_flowdatabladeVALIDATION_Blade_23.
Volume file name: volume_flow_databladeVALIDATION_Blade_23.
Restart file name: restart_flow_databladeVALIDATION_Blade_23.dat.

------------- Config File Boundary Information ( Zone 0 ) ---------------
+-----------------------------------------------------------------------+
|                        Marker Type|                        Marker Name|
+-----------------------------------------------------------------------+
|                  Periodic boundary|               symmetricWallsBOTTOM|
|                                   |                  symmetricWallsTOP|
+-----------------------------------------------------------------------+
|                     Inlet boundary|                              inlet|
+-----------------------------------------------------------------------+
|                    Outlet boundary|                             outlet|
+-----------------------------------------------------------------------+
|                     Heat flux wall|                             blade1|
|                                   |                             blade2|
+-----------------------------------------------------------------------+

-------------------- Output Preprocessing ( Zone 0 ) --------------------
  Info: Ignoring the following screen output fields:
  LINSOL_ITER_TRANS, LINSOL_RESIDUAL_TRANS
Screen output fields: INNER_ITER, CUR_TIME, RMS_DENSITY
  Info: Ignoring the following history output groups:
  RMS_TKE, RMS_DISSIPATION
History output group(s): INNER_ITER, WALL_TIME, RMS_DENSITY, RMS_MOMENTUM-X, RMS_ENERGY, LINSOL, CFL_NUMBER, FLOW_COEFF_SURF, AERO_COEFF_SURF
Convergence field(s): RMS_DENSITY
Warning: No (valid) fields chosen for time convergence monitoring. Time convergence monitoring inactive.
Volume output fields: COORDINATES, SOLUTION, PRIMITIVE, RESIDUAL, TIMESTEP, MESH_QUALITY, VORTEX_IDENTIFICATION

------------------- Geometry Preprocessing ( Zone 0 ) -------------------
Two dimensional problem.
58204 grid points before partitioning.
86210 volume elements before partitioning.
5 surface markers.
21 boundary elements in index 0 (Marker = inlet).
253 boundary elements in index 1 (Marker = symmetricWallsBOTTOM).
253 boundary elements in index 2 (Marker = symmetricWallsTOP).
21 boundary elements in index 3 (Marker = outlet).
1186 boundary elements in index 4 (Marker = blade1).
Executing the partitioning functions.
Building the graph adjacency structure.
Calling ParMETIS... graph partitioning complete (1491 edge cuts).
Distributing ParMETIS coloring.
Rebalancing vertices.
Rebalancing volume element connectivity.
Rebalancing markers and surface elements.
60103 vertices including ghost points. 
87691 interior elements including halo cells. 
58833 triangles.
28858 quadrilaterals.
Establishing MPI communication patterns.
Setting point connectivity.
Renumbering points (Reverse Cuthill McKee Ordering).
Recomputing point connectivity.
Setting element connectivity.
Checking the numerical grid orientation.
All volume elements are correctly orientend.
There has been a re-orientation of 877 LINE surface elements.
Identifying edges and vertices.
Setting the control volume structure.
Area of the computational grid: 2.71199.
Searching for the closest normal neighbors to the surfaces.
Storing a mapping from global to local point index.
Compute the surface curvature.
Max K: 180.502. Mean K: 5.44615. Standard deviation K: 18.7375.
Checking for periodicity.
WARNING: Periodicity has been detected. Disabling multigrid. 
Computing mesh quality statistics for the dual control volumes.
+--------------------------------------------------------------+
|           Mesh Quality Metric|        Minimum|        Maximum|
+--------------------------------------------------------------+
|    Orthogonality Angle (deg.)|        64.8832|             90|
|     CV Face Area Aspect Ratio|        1.00026|         225.14|
|           CV Sub-Volume Ratio|              1|        37.6452|
+--------------------------------------------------------------+
Finding max control volume width.
Communicating number of neighbors.
Reference length = 1.01363 m.
Wetted area = 2.5394 m.
Area projection in the x-plane = 0.643546 m, y-plane = 1.01363 m.
Max. coordinate in the x-direction = 1.0099 m, y-direction = 0.389142 m.
Min. coordinate in the x-direction = -0.00373878 m, y-direction = -0.226813 m.
Matching the periodic boundary points for marker pair 1.
 Matched 508 points with a max distance of: 6.01298e-14.
Computing wall distances.

-------------------- Solver Preprocessing ( Zone 0 ) --------------------
Viscous flow: Computing pressure using the ideal gas law
based on the free-stream temperature and a density computed
from the Reynolds number.
Force coefficients computed using free-stream values.

-- Models:
+------------------------------------------------------------------------------+
|          Viscosity Model|        Conductivity Model|              Fluid Model|
+------------------------------------------------------------------------------+
|               SUTHERLAND|          CONSTANT_PRANDTL|                IDEAL_GAS|
+------------------------------------------------------------------------------+
-- Fluid properties:
+------------------------------------------------------------------------------+
|                  Name|    Dim. value|    Ref. value|      Unit|Non-dim. value|
+------------------------------------------------------------------------------+
|        Ref. Viscosity|     1.716e-05|             1|   N.s/m^2|     1.716e-05|
|      Sutherland Temp.|        273.15|             1|         K|        273.15|
|     Sutherland Const.|         110.4|             1|         K|         110.4|
+------------------------------------------------------------------------------+
|        Prandtl (Lam.)|             -|             -|         -|          0.72|
|       Prandtl (Turb.)|             -|             -|         -|           0.9|
+------------------------------------------------------------------------------+
|          Gas Constant|       287.058|             1|  N.m/kg.K|       287.058|
|      Spec. Heat Ratio|             -|             -|         -|           1.4|
+------------------------------------------------------------------------------+
-- Initial and free-stream conditions:
+------------------------------------------------------------------------------+
|                  Name|    Dim. value|    Ref. value|      Unit|Non-dim. value|
+------------------------------------------------------------------------------+
|       Static Pressure|       4110.91|             1|        Pa|       4110.91|
|               Density|     0.0477361|             1|    kg/m^3|     0.0477361|
|           Temperature|           300|             1|         K|           300|
|          Total Energy|        242112|             1|   m^2/s^2|        242112|
|            Velocity-X|       184.963|             1|       m/s|       184.963|
|            Velocity-Y|      -139.379|             1|       m/s|      -139.379|
|    Velocity Magnitude|       231.598|             1|       m/s|       231.598|
+------------------------------------------------------------------------------+
|             Viscosity|   1.84592e-05|             1|   N.s/m^2|   1.84592e-05|
|          Conductivity|             -|             1|   W/m^2.K|             -|
|     Turb. Kin. Energy|       98.5594|             1|   m^2/s^2|       98.5594|
|     Spec. Dissipation|   2.54879e+06|             1|       1/s|   2.54879e+06|
+------------------------------------------------------------------------------+
|           Mach Number|             -|             -|         -|         0.667|
|       Reynolds Number|             -|             -|         -|        600000|
+------------------------------------------------------------------------------+
Initialize Jacobian structure (Navier-Stokes). MG level: 0.
Initialize Jacobian structure (SA model).

------------------- Numerics Preprocessing ( Zone 0 ) -------------------

----------------- Integration Preprocessing ( Zone 0 ) ------------------

------------------- Iteration Preprocessing ( Zone 0 ) ------------------
Euler/Navier-Stokes/RANS fluid iteration.

------------------------------ Begin Solver -----------------------------

Simulation Run using the Single-zone Driver
WARNING: SU2 was not compiled for an AVX-capable architecture. Performance could be better,
         see https://su2code.github.io/docs_v7/Build-SU2-Linux-MacOS/#compiler-optimizations
+--------------------------------------+
|  Inner_Iter|    Cur_Time|    rms[Rho]|
+--------------------------------------+
|           0|  0.0000e+00|   -2.546986|
|          10|  0.0000e+00|   -3.182913|
|          20|  0.0000e+00|   -3.004595|
|          30|  0.0000e+00|   -3.006379|
|          40|  0.0000e+00|   -2.975707|
|          50|  0.0000e+00|   -2.838223|
+-----------------------------------------------------------------------+
|        File Writing Summary       |              Filename             |
+-----------------------------------------------------------------------+
|SU2 binary restart                 |restart_flow_databladeVALIDATION_Blade_23.dat|
|                                   |                     (7843.31 MB/s)|
|Paraview                           |volume_flow_databladeVALIDATION_Blade_23.vtu|
|                                   |                     (872.517 MB/s)|
|Paraview surface                   |surface_flowdatabladeVALIDATION_Blade_23.vtu|
|                                   |                     (81.5885 MB/s)|
|SU2 ASCII restart                  |restart_flow_databladeVALIDATION_Blade_23.csv|
|                                   |                     (18.3904 MB/s)|
|CSV file                           |surface_flowdatabladeVALIDATION_Blade_23.csv|
|                                   |                     (19.4207 MB/s)|
+-----------------------------------------------------------------------+
+--------------------------------------+
|  Inner_Iter|    Cur_Time|    rms[Rho]|
+--------------------------------------+
|          60|  0.0000e+00|   -3.105453|
|          70|  0.0000e+00|   -3.139546|
|          80|  0.0000e+00|   -2.991423|
|          90|  0.0000e+00|   -3.017601|
|         100|  0.0000e+00|   -3.010445|
+-----------------------------------------------------------------------+
|        File Writing Summary       |              Filename             |
+-----------------------------------------------------------------------+
|SU2 binary restart                 |restart_flow_databladeVALIDATION_Blade_23.dat|
|                                   |                     (12002.8 MB/s)|
|Paraview                           |volume_flow_databladeVALIDATION_Blade_23.vtu|
|                                   |                     (996.364 MB/s)|
|Paraview surface                   |surface_flowdatabladeVALIDATION_Blade_23.vtu|
|                                   |                     (94.5139 MB/s)|
|SU2 ASCII restart                  |restart_flow_databladeVALIDATION_Blade_23.csv|
|                                   |                     (20.5733 MB/s)|
|CSV file                           |surface_flowdatabladeVALIDATION_Blade_23.csv|
|                                   |                     (20.0599 MB/s)|
+-----------------------------------------------------------------------+
+--------------------------------------+
|  Inner_Iter|    Cur_Time|    rms[Rho]|
+--------------------------------------+
|         110|  0.0000e+00|   -2.993894|
|         120|  0.0000e+00|   -3.067394|
|         130|  0.0000e+00|   -3.141785|
|         140|  0.0000e+00|   -3.119436|
|         150|  0.0000e+00|   -3.130809|
+-----------------------------------------------------------------------+
|        File Writing Summary       |              Filename             |
+-----------------------------------------------------------------------+
|SU2 binary restart                 |restart_flow_databladeVALIDATION_Blade_23.dat|
|                                   |                     (11798.4 MB/s)|
|Paraview                           |volume_flow_databladeVALIDATION_Blade_23.vtu|
|                                   |                     (987.318 MB/s)|
|Paraview surface                   |surface_flowdatabladeVALIDATION_Blade_23.vtu|
|                                   |                     (85.3462 MB/s)|
|SU2 ASCII restart                  |restart_flow_databladeVALIDATION_Blade_23.csv|
|                                   |                     (20.6031 MB/s)|
|CSV file                           |surface_flowdatabladeVALIDATION_Blade_23.csv|
|                                   |                     (18.8341 MB/s)|
+-----------------------------------------------------------------------+
+--------------------------------------+
|  Inner_Iter|    Cur_Time|    rms[Rho]|
+--------------------------------------+
|         160|  0.0000e+00|   -3.243897|
|         170|  0.0000e+00|   -3.215468|
|         180|  0.0000e+00|   -3.190078|
|         190|  0.0000e+00|   -3.246884|
|         200|  0.0000e+00|   -3.313970|
+-----------------------------------------------------------------------+
|        File Writing Summary       |              Filename             |
+-----------------------------------------------------------------------+
|SU2 binary restart                 |restart_flow_databladeVALIDATION_Blade_23.dat|
|                                   |                     (12130.6 MB/s)|
|Paraview                           |volume_flow_databladeVALIDATION_Blade_23.vtu|
|                                   |                     (1099.24 MB/s)|
|Paraview surface                   |surface_flowdatabladeVALIDATION_Blade_23.vtu|
|                                   |                     (125.194 MB/s)|
|SU2 ASCII restart                  |restart_flow_databladeVALIDATION_Blade_23.csv|
|                                   |                      (20.736 MB/s)|
|CSV file                           |surface_flowdatabladeVALIDATION_Blade_23.csv|
|                                   |                     (20.4033 MB/s)|
+-----------------------------------------------------------------------+
+--------------------------------------+
|  Inner_Iter|    Cur_Time|    rms[Rho]|
+--------------------------------------+
|         210|  0.0000e+00|   -3.276436|
|         220|  0.0000e+00|   -3.222771|
|         230|  0.0000e+00|   -3.288193|
|         240|  0.0000e+00|   -3.255728|
|         250|  0.0000e+00|   -3.256596|
+-----------------------------------------------------------------------+
|        File Writing Summary       |              Filename             |
+-----------------------------------------------------------------------+
|SU2 binary restart                 |restart_flow_databladeVALIDATION_Blade_23.dat|
|                                   |                     (11985.9 MB/s)|
|Paraview                           |volume_flow_databladeVALIDATION_Blade_23.vtu|
|                                   |                     (1068.02 MB/s)|
|Paraview surface                   |surface_flowdatabladeVALIDATION_Blade_23.vtu|
|                                   |                     (96.4267 MB/s)|
|SU2 ASCII restart                  |restart_flow_databladeVALIDATION_Blade_23.csv|
|                                   |                     (20.8208 MB/s)|
|CSV file                           |surface_flowdatabladeVALIDATION_Blade_23.csv|
|                                   |                      (20.549 MB/s)|
+-----------------------------------------------------------------------+
+--------------------------------------+
|  Inner_Iter|    Cur_Time|    rms[Rho]|
+--------------------------------------+
|         260|  0.0000e+00|   -3.328620|
|         270|  0.0000e+00|   -3.452172|
|         280|  0.0000e+00|   -3.542831|
|         290|  0.0000e+00|   -3.613067|
|         300|  0.0000e+00|   -3.670827|
+-----------------------------------------------------------------------+
|        File Writing Summary       |              Filename             |
+-----------------------------------------------------------------------+
|SU2 binary restart                 |restart_flow_databladeVALIDATION_Blade_23.dat|
|                                   |                     (10366.1 MB/s)|
|Paraview                           |volume_flow_databladeVALIDATION_Blade_23.vtu|
|                                   |                     (1007.01 MB/s)|
|Paraview surface                   |surface_flowdatabladeVALIDATION_Blade_23.vtu|
|                                   |                     (117.317 MB/s)|
|SU2 ASCII restart                  |restart_flow_databladeVALIDATION_Blade_23.csv|
|                                   |                      (19.993 MB/s)|
|CSV file                           |surface_flowdatabladeVALIDATION_Blade_23.csv|
|                                   |                     (6.70105 MB/s)|
+-----------------------------------------------------------------------+
+--------------------------------------+
|  Inner_Iter|    Cur_Time|    rms[Rho]|
+--------------------------------------+
|         310|  0.0000e+00|   -3.667072|
|         320|  0.0000e+00|   -3.668195|
|         330|  0.0000e+00|   -3.712715|
|         340|  0.0000e+00|   -3.710470|
|         350|  0.0000e+00|   -3.629481|
+-----------------------------------------------------------------------+
|        File Writing Summary       |              Filename             |
+-----------------------------------------------------------------------+
|SU2 binary restart                 |restart_flow_databladeVALIDATION_Blade_23.dat|
|                                   |                     (13836.4 MB/s)|
|Paraview                           |volume_flow_databladeVALIDATION_Blade_23.vtu|
|                                   |                     (957.055 MB/s)|
|Paraview surface                   |surface_flowdatabladeVALIDATION_Blade_23.vtu|
|                                   |                     (90.6679 MB/s)|
|SU2 ASCII restart                  |restart_flow_databladeVALIDATION_Blade_23.csv|
|                                   |                      (20.668 MB/s)|
|CSV file                           |surface_flowdatabladeVALIDATION_Blade_23.csv|
|                                   |                     (19.8746 MB/s)|
+-----------------------------------------------------------------------+
+--------------------------------------+
|  Inner_Iter|    Cur_Time|    rms[Rho]|
+--------------------------------------+
|         360|  0.0000e+00|   -3.589493|
|         370|  0.0000e+00|   -3.580899|
|         380|  0.0000e+00|   -3.591308|
|         390|  0.0000e+00|   -3.544562|
|         400|  0.0000e+00|   -3.663657|
+-----------------------------------------------------------------------+
|        File Writing Summary       |              Filename             |
+-----------------------------------------------------------------------+
|SU2 binary restart                 |restart_flow_databladeVALIDATION_Blade_23.dat|
|                                   |                     (11961.7 MB/s)|
|Paraview                           |volume_flow_databladeVALIDATION_Blade_23.vtu|
|                                   |                     (1041.38 MB/s)|
|Paraview surface                   |surface_flowdatabladeVALIDATION_Blade_23.vtu|
|                                   |                     (98.3944 MB/s)|
|SU2 ASCII restart                  |restart_flow_databladeVALIDATION_Blade_23.csv|
|                                   |                     (20.6286 MB/s)|
|CSV file                           |surface_flowdatabladeVALIDATION_Blade_23.csv|
|                                   |                     (19.1896 MB/s)|
+-----------------------------------------------------------------------+
+--------------------------------------+
|  Inner_Iter|    Cur_Time|    rms[Rho]|
+--------------------------------------+
|         410|  0.0000e+00|   -3.763775|
|         420|  0.0000e+00|   -3.837478|
|         430|  0.0000e+00|   -3.882171|
|         440|  0.0000e+00|   -3.905975|
|         450|  0.0000e+00|   -3.887005|
+-----------------------------------------------------------------------+
|        File Writing Summary       |              Filename             |
+-----------------------------------------------------------------------+
|SU2 binary restart                 |restart_flow_databladeVALIDATION_Blade_23.dat|
|                                   |                     (9494.48 MB/s)|
|Paraview                           |volume_flow_databladeVALIDATION_Blade_23.vtu|
|                                   |                     (282.694 MB/s)|
|Paraview surface                   |surface_flowdatabladeVALIDATION_Blade_23.vtu|
|                                   |                     (55.6408 MB/s)|
|SU2 ASCII restart                  |restart_flow_databladeVALIDATION_Blade_23.csv|
|                                   |                     (20.6112 MB/s)|
|CSV file                           |surface_flowdatabladeVALIDATION_Blade_23.csv|
|                                   |                     (19.9587 MB/s)|
+-----------------------------------------------------------------------+
+--------------------------------------+
|  Inner_Iter|    Cur_Time|    rms[Rho]|
+--------------------------------------+
|         460|  0.0000e+00|   -3.920350|
|         470|  0.0000e+00|   -3.932125|
|         480|  0.0000e+00|   -3.948347|
|         490|  0.0000e+00|   -3.949237|
|         500|  0.0000e+00|   -3.917622|
+-----------------------------------------------------------------------+
|        File Writing Summary       |              Filename             |
+-----------------------------------------------------------------------+
|SU2 binary restart                 |restart_flow_databladeVALIDATION_Blade_23.dat|
|                                   |                     (10960.8 MB/s)|
|Paraview                           |volume_flow_databladeVALIDATION_Blade_23.vtu|
|                                   |                     (1005.29 MB/s)|
|Paraview surface                   |surface_flowdatabladeVALIDATION_Blade_23.vtu|
|                                   |                     (90.2673 MB/s)|
|SU2 ASCII restart                  |restart_flow_databladeVALIDATION_Blade_23.csv|
|                                   |                     (20.8497 MB/s)|
|CSV file                           |surface_flowdatabladeVALIDATION_Blade_23.csv|
|                                   |                     (20.5824 MB/s)|
+-----------------------------------------------------------------------+
+--------------------------------------+
|  Inner_Iter|    Cur_Time|    rms[Rho]|
+--------------------------------------+
|         510|  0.0000e+00|   -3.945192|
|         520|  0.0000e+00|   -3.985601|
|         530|  0.0000e+00|   -3.968235|
|         540|  0.0000e+00|   -3.992272|
|         550|  0.0000e+00|   -4.034387|
+-----------------------------------------------------------------------+
|        File Writing Summary       |              Filename             |
+-----------------------------------------------------------------------+
|SU2 binary restart                 |restart_flow_databladeVALIDATION_Blade_23.dat|
|                                   |                     (10473.4 MB/s)|
|Paraview                           |volume_flow_databladeVALIDATION_Blade_23.vtu|
|                                   |                     (1063.82 MB/s)|
|Paraview surface                   |surface_flowdatabladeVALIDATION_Blade_23.vtu|
|                                   |                     (96.4807 MB/s)|
|SU2 ASCII restart                  |restart_flow_databladeVALIDATION_Blade_23.csv|
|                                   |                     (20.7055 MB/s)|
|CSV file                           |surface_flowdatabladeVALIDATION_Blade_23.csv|
|                                   |                     (19.9383 MB/s)|
+-----------------------------------------------------------------------+
+--------------------------------------+
|  Inner_Iter|    Cur_Time|    rms[Rho]|
+--------------------------------------+
|         560|  0.0000e+00|   -4.078838|
|         570|  0.0000e+00|   -4.085447|
|         580|  0.0000e+00|   -4.120008|
|         590|  0.0000e+00|   -4.136054|
|         600|  0.0000e+00|   -4.121953|
+-----------------------------------------------------------------------+
|        File Writing Summary       |              Filename             |
+-----------------------------------------------------------------------+
|SU2 binary restart                 |restart_flow_databladeVALIDATION_Blade_23.dat|
|                                   |                     (13831.4 MB/s)|
|Paraview                           |volume_flow_databladeVALIDATION_Blade_23.vtu|
|                                   |                     (903.267 MB/s)|
|Paraview surface                   |surface_flowdatabladeVALIDATION_Blade_23.vtu|
|                                   |                      (56.438 MB/s)|
|SU2 ASCII restart                  |restart_flow_databladeVALIDATION_Blade_23.csv|
|                                   |                     (20.5734 MB/s)|
|CSV file                           |surface_flowdatabladeVALIDATION_Blade_23.csv|
|                                   |                     (20.6687 MB/s)|
+-----------------------------------------------------------------------+
+--------------------------------------+
|  Inner_Iter|    Cur_Time|    rms[Rho]|
+--------------------------------------+
|         610|  0.0000e+00|   -4.095718|
|         620|  0.0000e+00|   -4.136340|
|         630|  0.0000e+00|   -4.123511|
|         640|  0.0000e+00|   -4.118829|
|         650|  0.0000e+00|   -4.121945|
+-----------------------------------------------------------------------+
|        File Writing Summary       |              Filename             |
+-----------------------------------------------------------------------+
|SU2 binary restart                 |restart_flow_databladeVALIDATION_Blade_23.dat|
|                                   |                     (11251.1 MB/s)|
|Paraview                           |volume_flow_databladeVALIDATION_Blade_23.vtu|
|                                   |                     (1000.07 MB/s)|
|Paraview surface                   |surface_flowdatabladeVALIDATION_Blade_23.vtu|
|                                   |                     (93.9833 MB/s)|
|SU2 ASCII restart                  |restart_flow_databladeVALIDATION_Blade_23.csv|
|                                   |                     (20.8622 MB/s)|
|CSV file                           |surface_flowdatabladeVALIDATION_Blade_23.csv|
|                                   |                     (20.6542 MB/s)|
+-----------------------------------------------------------------------+
+--------------------------------------+
|  Inner_Iter|    Cur_Time|    rms[Rho]|
+--------------------------------------+
|         660|  0.0000e+00|   -4.173333|
|         670|  0.0000e+00|   -4.182418|
|         680|  0.0000e+00|   -4.171184|
|         690|  0.0000e+00|   -4.194909|
|         700|  0.0000e+00|   -4.217606|
+-----------------------------------------------------------------------+
|        File Writing Summary       |              Filename             |
+-----------------------------------------------------------------------+
|SU2 binary restart                 |restart_flow_databladeVALIDATION_Blade_23.dat|
|                                   |                     (11805.6 MB/s)|
|Paraview                           |volume_flow_databladeVALIDATION_Blade_23.vtu|
|                                   |                     (906.347 MB/s)|
|Paraview surface                   |surface_flowdatabladeVALIDATION_Blade_23.vtu|
|                                   |                     (89.5831 MB/s)|
|SU2 ASCII restart                  |restart_flow_databladeVALIDATION_Blade_23.csv|
|                                   |                     (19.9296 MB/s)|
|CSV file                           |surface_flowdatabladeVALIDATION_Blade_23.csv|
|                                   |                     (19.9756 MB/s)|
+-----------------------------------------------------------------------+
+--------------------------------------+
|  Inner_Iter|    Cur_Time|    rms[Rho]|
+--------------------------------------+
|         710|  0.0000e+00|   -4.199673|
|         720|  0.0000e+00|   -4.161169|
|         730|  0.0000e+00|   -4.191084|
|         740|  0.0000e+00|   -4.209691|
|         750|  0.0000e+00|   -4.207987|
+-----------------------------------------------------------------------+
|        File Writing Summary       |              Filename             |
+-----------------------------------------------------------------------+
|SU2 binary restart                 |restart_flow_databladeVALIDATION_Blade_23.dat|
|                                   |                       (10057 MB/s)|
|Paraview                           |volume_flow_databladeVALIDATION_Blade_23.vtu|
|                                   |                     (867.142 MB/s)|
|Paraview surface                   |surface_flowdatabladeVALIDATION_Blade_23.vtu|
|                                   |                     (96.1536 MB/s)|
|SU2 ASCII restart                  |restart_flow_databladeVALIDATION_Blade_23.csv|
|                                   |                     (20.7892 MB/s)|
|CSV file                           |surface_flowdatabladeVALIDATION_Blade_23.csv|
|                                   |                     (20.0604 MB/s)|
+-----------------------------------------------------------------------+
+--------------------------------------+
|  Inner_Iter|    Cur_Time|    rms[Rho]|
+--------------------------------------+
|         760|  0.0000e+00|   -4.199127|
|         770|  0.0000e+00|   -4.232914|
|         780|  0.0000e+00|   -4.192012|
|         790|  0.0000e+00|   -4.172082|
|         800|  0.0000e+00|   -4.252751|
+-----------------------------------------------------------------------+
|        File Writing Summary       |              Filename             |
+-----------------------------------------------------------------------+
|SU2 binary restart                 |restart_flow_databladeVALIDATION_Blade_23.dat|
|                                   |                     (11914.4 MB/s)|
|Paraview                           |volume_flow_databladeVALIDATION_Blade_23.vtu|
|                                   |                     (1052.22 MB/s)|
|Paraview surface                   |surface_flowdatabladeVALIDATION_Blade_23.vtu|
|                                   |                     (101.523 MB/s)|
|SU2 ASCII restart                  |restart_flow_databladeVALIDATION_Blade_23.csv|
|                                   |                     (20.9945 MB/s)|
|CSV file                           |surface_flowdatabladeVALIDATION_Blade_23.csv|
|                                   |                     (20.0668 MB/s)|
+-----------------------------------------------------------------------+
+--------------------------------------+
|  Inner_Iter|    Cur_Time|    rms[Rho]|
+--------------------------------------+
|         810|  0.0000e+00|   -4.290792|
|         820|  0.0000e+00|   -4.288110|
|         830|  0.0000e+00|   -4.304709|
|         840|  0.0000e+00|   -4.320045|
|         850|  0.0000e+00|   -4.314517|
+-----------------------------------------------------------------------+
|        File Writing Summary       |              Filename             |
+-----------------------------------------------------------------------+
|SU2 binary restart                 |restart_flow_databladeVALIDATION_Blade_23.dat|
|                                   |                     (11020.5 MB/s)|
|Paraview                           |volume_flow_databladeVALIDATION_Blade_23.vtu|
|                                   |                     (1094.38 MB/s)|
|Paraview surface                   |surface_flowdatabladeVALIDATION_Blade_23.vtu|
|                                   |                     (82.3072 MB/s)|
|SU2 ASCII restart                  |restart_flow_databladeVALIDATION_Blade_23.csv|
|                                   |                     (20.4776 MB/s)|
|CSV file                           |surface_flowdatabladeVALIDATION_Blade_23.csv|
|                                   |                     (21.4883 MB/s)|
+-----------------------------------------------------------------------+
+--------------------------------------+
|  Inner_Iter|    Cur_Time|    rms[Rho]|
+--------------------------------------+
|         860|  0.0000e+00|   -4.283804|
|         870|  0.0000e+00|   -4.338598|
|         880|  0.0000e+00|   -4.335448|
|         890|  0.0000e+00|   -4.329428|
|         900|  0.0000e+00|   -4.359823|
+-----------------------------------------------------------------------+
|        File Writing Summary       |              Filename             |
+-----------------------------------------------------------------------+
|SU2 binary restart                 |restart_flow_databladeVALIDATION_Blade_23.dat|
|                                   |                     (12281.7 MB/s)|
|Paraview                           |volume_flow_databladeVALIDATION_Blade_23.vtu|
|                                   |                     (832.159 MB/s)|
|Paraview surface                   |surface_flowdatabladeVALIDATION_Blade_23.vtu|
|                                   |                     (89.6797 MB/s)|
|SU2 ASCII restart                  |restart_flow_databladeVALIDATION_Blade_23.csv|
|                                   |                     (20.2731 MB/s)|
|CSV file                           |surface_flowdatabladeVALIDATION_Blade_23.csv|
|                                   |                     (19.5584 MB/s)|
+-----------------------------------------------------------------------+
+--------------------------------------+
|  Inner_Iter|    Cur_Time|    rms[Rho]|
+--------------------------------------+
|         910|  0.0000e+00|   -4.409276|
|         920|  0.0000e+00|   -4.414474|
|         930|  0.0000e+00|   -4.417132|
|         940|  0.0000e+00|   -4.465037|
|         950|  0.0000e+00|   -4.491326|
+-----------------------------------------------------------------------+
|        File Writing Summary       |              Filename             |
+-----------------------------------------------------------------------+
|SU2 binary restart                 |restart_flow_databladeVALIDATION_Blade_23.dat|
|                                   |                     (11702.3 MB/s)|
|Paraview                           |volume_flow_databladeVALIDATION_Blade_23.vtu|
|                                   |                     (1086.92 MB/s)|
|Paraview surface                   |surface_flowdatabladeVALIDATION_Blade_23.vtu|
|                                   |                     (101.643 MB/s)|
|SU2 ASCII restart                  |restart_flow_databladeVALIDATION_Blade_23.csv|
|                                   |                     (20.6032 MB/s)|
|CSV file                           |surface_flowdatabladeVALIDATION_Blade_23.csv|
|                                   |                     (20.4327 MB/s)|
+-----------------------------------------------------------------------+
+--------------------------------------+
|  Inner_Iter|    Cur_Time|    rms[Rho]|
+--------------------------------------+
|         960|  0.0000e+00|   -4.492173|
|         970|  0.0000e+00|   -4.467122|
|         980|  0.0000e+00|   -4.502702|
|         990|  0.0000e+00|   -4.500854|
|        1000|  0.0000e+00|   -4.463921|
+-----------------------------------------------------------------------+
|        File Writing Summary       |              Filename             |
+-----------------------------------------------------------------------+
|SU2 binary restart                 |restart_flow_databladeVALIDATION_Blade_23.dat|
|                                   |                     (12316.1 MB/s)|
|Paraview                           |volume_flow_databladeVALIDATION_Blade_23.vtu|
|                                   |                      (1043.1 MB/s)|
|Paraview surface                   |surface_flowdatabladeVALIDATION_Blade_23.vtu|
|                                   |                     (99.0371 MB/s)|
|SU2 ASCII restart                  |restart_flow_databladeVALIDATION_Blade_23.csv|
|                                   |                     (20.5444 MB/s)|
|CSV file                           |surface_flowdatabladeVALIDATION_Blade_23.csv|
|                                   |                     (20.0342 MB/s)|
+-----------------------------------------------------------------------+
+--------------------------------------+
|  Inner_Iter|    Cur_Time|    rms[Rho]|
+--------------------------------------+
|        1010|  0.0000e+00|   -4.497156|
|        1020|  0.0000e+00|   -4.547739|
|        1030|  0.0000e+00|   -4.528984|
|        1040|  0.0000e+00|   -4.506647|
|        1050|  0.0000e+00|   -4.533743|
+-----------------------------------------------------------------------+
|        File Writing Summary       |              Filename             |
+-----------------------------------------------------------------------+
|SU2 binary restart                 |restart_flow_databladeVALIDATION_Blade_23.dat|
|                                   |                     (12365.7 MB/s)|
|Paraview                           |volume_flow_databladeVALIDATION_Blade_23.vtu|
|                                   |                     (985.831 MB/s)|
|Paraview surface                   |surface_flowdatabladeVALIDATION_Blade_23.vtu|
|                                   |                     (126.861 MB/s)|
|SU2 ASCII restart                  |restart_flow_databladeVALIDATION_Blade_23.csv|
|                                   |                      (20.986 MB/s)|
|CSV file                           |surface_flowdatabladeVALIDATION_Blade_23.csv|
|                                   |                       (19.63 MB/s)|
+-----------------------------------------------------------------------+
+--------------------------------------+
|  Inner_Iter|    Cur_Time|    rms[Rho]|
+--------------------------------------+
|        1060|  0.0000e+00|   -4.543013|
|        1070|  0.0000e+00|   -4.525740|
|        1080|  0.0000e+00|   -4.528109|
|        1090|  0.0000e+00|   -4.551539|
|        1100|  0.0000e+00|   -4.568053|
+-----------------------------------------------------------------------+
|        File Writing Summary       |              Filename             |
+-----------------------------------------------------------------------+
|SU2 binary restart                 |restart_flow_databladeVALIDATION_Blade_23.dat|
|                                   |                     (11774.9 MB/s)|
|Paraview                           |volume_flow_databladeVALIDATION_Blade_23.vtu|
|                                   |                      (965.41 MB/s)|
|Paraview surface                   |surface_flowdatabladeVALIDATION_Blade_23.vtu|
|                                   |                      (94.525 MB/s)|
|SU2 ASCII restart                  |restart_flow_databladeVALIDATION_Blade_23.csv|
|                                   |                     (21.1037 MB/s)|
|CSV file                           |surface_flowdatabladeVALIDATION_Blade_23.csv|
|                                   |                      (21.521 MB/s)|
+-----------------------------------------------------------------------+
+--------------------------------------+
|  Inner_Iter|    Cur_Time|    rms[Rho]|
+--------------------------------------+
|        1110|  0.0000e+00|   -4.567916|
|        1120|  0.0000e+00|   -4.571263|
|        1130|  0.0000e+00|   -4.627990|
|        1140|  0.0000e+00|   -4.636052|
|        1150|  0.0000e+00|   -4.633209|
+-----------------------------------------------------------------------+
|        File Writing Summary       |              Filename             |
+-----------------------------------------------------------------------+
|SU2 binary restart                 |restart_flow_databladeVALIDATION_Blade_23.dat|
|                                   |                       (13175 MB/s)|
|Paraview                           |volume_flow_databladeVALIDATION_Blade_23.vtu|
|                                   |                     (1081.81 MB/s)|
|Paraview surface                   |surface_flowdatabladeVALIDATION_Blade_23.vtu|
|                                   |                     (95.5099 MB/s)|
|SU2 ASCII restart                  |restart_flow_databladeVALIDATION_Blade_23.csv|
|                                   |                     (21.3452 MB/s)|
|CSV file                           |surface_flowdatabladeVALIDATION_Blade_23.csv|
|                                   |                     (21.7298 MB/s)|
+-----------------------------------------------------------------------+
+--------------------------------------+
|  Inner_Iter|    Cur_Time|    rms[Rho]|
+--------------------------------------+
|        1160|  0.0000e+00|   -4.665872|
|        1170|  0.0000e+00|   -4.673389|
|        1180|  0.0000e+00|   -4.666249|
|        1190|  0.0000e+00|   -4.669280|
|        1200|  0.0000e+00|   -4.692627|
+-----------------------------------------------------------------------+
|        File Writing Summary       |              Filename             |
+-----------------------------------------------------------------------+
|SU2 binary restart                 |restart_flow_databladeVALIDATION_Blade_23.dat|
|                                   |                     (11785.7 MB/s)|
|Paraview                           |volume_flow_databladeVALIDATION_Blade_23.vtu|
|                                   |                     (1074.71 MB/s)|
|Paraview surface                   |surface_flowdatabladeVALIDATION_Blade_23.vtu|
|                                   |                      (88.824 MB/s)|
|SU2 ASCII restart                  |restart_flow_databladeVALIDATION_Blade_23.csv|
|                                   |                     (21.2909 MB/s)|
|CSV file                           |surface_flowdatabladeVALIDATION_Blade_23.csv|
|                                   |                     (19.5365 MB/s)|
+-----------------------------------------------------------------------+
+--------------------------------------+
|  Inner_Iter|    Cur_Time|    rms[Rho]|
+--------------------------------------+
|        1210|  0.0000e+00|   -4.654954|
|        1220|  0.0000e+00|   -4.682872|
|        1230|  0.0000e+00|   -4.698721|
|        1240|  0.0000e+00|   -4.687970|
|        1250|  0.0000e+00|   -4.685430|
+-----------------------------------------------------------------------+
|        File Writing Summary       |              Filename             |
+-----------------------------------------------------------------------+
|SU2 binary restart                 |restart_flow_databladeVALIDATION_Blade_23.dat|
|                                   |                     (11102.5 MB/s)|
|Paraview                           |volume_flow_databladeVALIDATION_Blade_23.vtu|
|                                   |                     (1109.28 MB/s)|
|Paraview surface                   |surface_flowdatabladeVALIDATION_Blade_23.vtu|
|                                   |                     (99.2532 MB/s)|
|SU2 ASCII restart                  |restart_flow_databladeVALIDATION_Blade_23.csv|
|                                   |                     (17.6098 MB/s)|
|CSV file                           |surface_flowdatabladeVALIDATION_Blade_23.csv|
|                                   |                     (19.7559 MB/s)|
+-----------------------------------------------------------------------+
+--------------------------------------+
|  Inner_Iter|    Cur_Time|    rms[Rho]|
+--------------------------------------+
|        1260|  0.0000e+00|   -4.707377|
|        1270|  0.0000e+00|   -4.714200|
|        1280|  0.0000e+00|   -4.671239|
|        1290|  0.0000e+00|   -4.671265|
|        1300|  0.0000e+00|   -4.693628|
+-----------------------------------------------------------------------+
|        File Writing Summary       |              Filename             |
+-----------------------------------------------------------------------+
|SU2 binary restart                 |restart_flow_databladeVALIDATION_Blade_23.dat|
|                                   |                     (12045.1 MB/s)|
|Paraview                           |volume_flow_databladeVALIDATION_Blade_23.vtu|
|                                   |                     (992.201 MB/s)|
|Paraview surface                   |surface_flowdatabladeVALIDATION_Blade_23.vtu|
|                                   |                     (71.6196 MB/s)|
|SU2 ASCII restart                  |restart_flow_databladeVALIDATION_Blade_23.csv|
|                                   |                      (20.794 MB/s)|
|CSV file                           |surface_flowdatabladeVALIDATION_Blade_23.csv|
|                                   |                      (20.288 MB/s)|
+-----------------------------------------------------------------------+
+--------------------------------------+
|  Inner_Iter|    Cur_Time|    rms[Rho]|
+--------------------------------------+
|        1310|  0.0000e+00|   -4.733669|
|        1320|  0.0000e+00|   -4.741632|
|        1330|  0.0000e+00|   -4.783896|
|        1340|  0.0000e+00|   -4.789002|
|        1350|  0.0000e+00|   -4.776822|
+-----------------------------------------------------------------------+
|        File Writing Summary       |              Filename             |
+-----------------------------------------------------------------------+
|SU2 binary restart                 |restart_flow_databladeVALIDATION_Blade_23.dat|
|                                   |                        (9357 MB/s)|
|Paraview                           |volume_flow_databladeVALIDATION_Blade_23.vtu|
|                                   |                     (1027.47 MB/s)|
|Paraview surface                   |surface_flowdatabladeVALIDATION_Blade_23.vtu|
|                                   |                     (93.8626 MB/s)|
|SU2 ASCII restart                  |restart_flow_databladeVALIDATION_Blade_23.csv|
|                                   |                     (20.7804 MB/s)|
|CSV file                           |surface_flowdatabladeVALIDATION_Blade_23.csv|
|                                   |                     (21.4783 MB/s)|
+-----------------------------------------------------------------------+
+--------------------------------------+
|  Inner_Iter|    Cur_Time|    rms[Rho]|
+--------------------------------------+
|        1360|  0.0000e+00|   -4.769553|
|        1370|  0.0000e+00|   -4.766896|
|        1380|  0.0000e+00|   -4.758290|
|        1390|  0.0000e+00|   -4.808147|
|        1400|  0.0000e+00|   -4.804682|
+-----------------------------------------------------------------------+
|        File Writing Summary       |              Filename             |
+-----------------------------------------------------------------------+
|SU2 binary restart                 |restart_flow_databladeVALIDATION_Blade_23.dat|
|                                   |                     (12333.9 MB/s)|
|Paraview                           |volume_flow_databladeVALIDATION_Blade_23.vtu|
|                                   |                      (1096.4 MB/s)|
|Paraview surface                   |surface_flowdatabladeVALIDATION_Blade_23.vtu|
|                                   |                     (97.6333 MB/s)|
|SU2 ASCII restart                  |restart_flow_databladeVALIDATION_Blade_23.csv|
|                                   |                     (21.1944 MB/s)|
|CSV file                           |surface_flowdatabladeVALIDATION_Blade_23.csv|
|                                   |                      (20.524 MB/s)|
+-----------------------------------------------------------------------+
+--------------------------------------+
|  Inner_Iter|    Cur_Time|    rms[Rho]|
+--------------------------------------+
|        1410|  0.0000e+00|   -4.777174|
|        1420|  0.0000e+00|   -4.837138|
|        1430|  0.0000e+00|   -4.862563|
|        1440|  0.0000e+00|   -4.850354|
|        1450|  0.0000e+00|   -4.821168|
+-----------------------------------------------------------------------+
|        File Writing Summary       |              Filename             |
+-----------------------------------------------------------------------+
|SU2 binary restart                 |restart_flow_databladeVALIDATION_Blade_23.dat|
|                                   |                     (11698.7 MB/s)|
|Paraview                           |volume_flow_databladeVALIDATION_Blade_23.vtu|
|                                   |                     (1030.35 MB/s)|
|Paraview surface                   |surface_flowdatabladeVALIDATION_Blade_23.vtu|
|                                   |                     (98.2701 MB/s)|
|SU2 ASCII restart                  |restart_flow_databladeVALIDATION_Blade_23.csv|
|                                   |                     (20.9245 MB/s)|
|CSV file                           |surface_flowdatabladeVALIDATION_Blade_23.csv|
|                                   |                     (21.5944 MB/s)|
+-----------------------------------------------------------------------+
+--------------------------------------+
|  Inner_Iter|    Cur_Time|    rms[Rho]|
+--------------------------------------+
|        1460|  0.0000e+00|   -4.849143|
|        1470|  0.0000e+00|   -4.861633|
|        1480|  0.0000e+00|   -4.819607|
|        1490|  0.0000e+00|   -4.844746|
|        1500|  0.0000e+00|   -4.896439|
+-----------------------------------------------------------------------+
|        File Writing Summary       |              Filename             |
+-----------------------------------------------------------------------+
|SU2 binary restart                 |restart_flow_databladeVALIDATION_Blade_23.dat|
|                                   |                     (9339.95 MB/s)|
|Paraview                           |volume_flow_databladeVALIDATION_Blade_23.vtu|
|                                   |                     (653.344 MB/s)|
|Paraview surface                   |surface_flowdatabladeVALIDATION_Blade_23.vtu|
|                                   |                     (105.582 MB/s)|
|SU2 ASCII restart                  |restart_flow_databladeVALIDATION_Blade_23.csv|
|                                   |                     (19.8693 MB/s)|
|CSV file                           |surface_flowdatabladeVALIDATION_Blade_23.csv|
|                                   |                     (21.2236 MB/s)|
+-----------------------------------------------------------------------+
+--------------------------------------+
|  Inner_Iter|    Cur_Time|    rms[Rho]|
+--------------------------------------+
|        1510|  0.0000e+00|   -4.894288|
|        1520|  0.0000e+00|   -4.877791|
|        1530|  0.0000e+00|   -4.892250|
|        1540|  0.0000e+00|   -4.914549|
|        1550|  0.0000e+00|   -4.901897|
+-----------------------------------------------------------------------+
|        File Writing Summary       |              Filename             |
+-----------------------------------------------------------------------+
|SU2 binary restart                 |restart_flow_databladeVALIDATION_Blade_23.dat|
|                                   |                     (9978.69 MB/s)|
|Paraview                           |volume_flow_databladeVALIDATION_Blade_23.vtu|
|                                   |                     (700.419 MB/s)|
|Paraview surface                   |surface_flowdatabladeVALIDATION_Blade_23.vtu|
|                                   |                     (98.3302 MB/s)|
|SU2 ASCII restart                  |restart_flow_databladeVALIDATION_Blade_23.csv|
|                                   |                     (20.3858 MB/s)|
|CSV file                           |surface_flowdatabladeVALIDATION_Blade_23.csv|
|                                   |                     (20.4829 MB/s)|
+-----------------------------------------------------------------------+
+--------------------------------------+
|  Inner_Iter|    Cur_Time|    rms[Rho]|
+--------------------------------------+
|        1560|  0.0000e+00|   -4.889573|
|        1570|  0.0000e+00|   -4.918020|
|        1580|  0.0000e+00|   -4.921160|
|        1590|  0.0000e+00|   -4.882798|
|        1600|  0.0000e+00|   -4.833218|
+-----------------------------------------------------------------------+
|        File Writing Summary       |              Filename             |
+-----------------------------------------------------------------------+
|SU2 binary restart                 |restart_flow_databladeVALIDATION_Blade_23.dat|
|                                   |                     (11289.1 MB/s)|
|Paraview                           |volume_flow_databladeVALIDATION_Blade_23.vtu|
|                                   |                     (1103.34 MB/s)|
|Paraview surface                   |surface_flowdatabladeVALIDATION_Blade_23.vtu|
|                                   |                     (130.911 MB/s)|
|SU2 ASCII restart                  |restart_flow_databladeVALIDATION_Blade_23.csv|
|                                   |                     (20.9495 MB/s)|
|CSV file                           |surface_flowdatabladeVALIDATION_Blade_23.csv|
|                                   |                     (19.5611 MB/s)|
+-----------------------------------------------------------------------+
+--------------------------------------+
|  Inner_Iter|    Cur_Time|    rms[Rho]|
+--------------------------------------+
|        1610|  0.0000e+00|   -4.911904|
|        1620|  0.0000e+00|   -4.912697|
|        1630|  0.0000e+00|   -4.858802|
|        1640|  0.0000e+00|   -4.931830|
|        1650|  0.0000e+00|   -4.979730|
+-----------------------------------------------------------------------+
|        File Writing Summary       |              Filename             |
+-----------------------------------------------------------------------+
|SU2 binary restart                 |restart_flow_databladeVALIDATION_Blade_23.dat|
|                                   |                     (12159.4 MB/s)|
|Paraview                           |volume_flow_databladeVALIDATION_Blade_23.vtu|
|                                   |                     (1027.19 MB/s)|
|Paraview surface                   |surface_flowdatabladeVALIDATION_Blade_23.vtu|
|                                   |                     (79.2082 MB/s)|
|SU2 ASCII restart                  |restart_flow_databladeVALIDATION_Blade_23.csv|
|                                   |                     (20.4436 MB/s)|
|CSV file                           |surface_flowdatabladeVALIDATION_Blade_23.csv|
|                                   |                     (20.9614 MB/s)|
+-----------------------------------------------------------------------+
+--------------------------------------+
|  Inner_Iter|    Cur_Time|    rms[Rho]|
+--------------------------------------+
|        1660|  0.0000e+00|   -4.987074|
|        1670|  0.0000e+00|   -4.972387|
|        1680|  0.0000e+00|   -4.994805|
|        1690|  0.0000e+00|   -5.003895|
|        1700|  0.0000e+00|   -4.952475|
+-----------------------------------------------------------------------+
|        File Writing Summary       |              Filename             |
+-----------------------------------------------------------------------+
|SU2 binary restart                 |restart_flow_databladeVALIDATION_Blade_23.dat|
|                                   |                     (11265.1 MB/s)|
|Paraview                           |volume_flow_databladeVALIDATION_Blade_23.vtu|
|                                   |                      (956.53 MB/s)|
|Paraview surface                   |surface_flowdatabladeVALIDATION_Blade_23.vtu|
|                                   |                     (99.1348 MB/s)|
|SU2 ASCII restart                  |restart_flow_databladeVALIDATION_Blade_23.csv|
|                                   |                     (20.3705 MB/s)|
|CSV file                           |surface_flowdatabladeVALIDATION_Blade_23.csv|
|                                   |                     (20.5646 MB/s)|
+-----------------------------------------------------------------------+
+--------------------------------------+
|  Inner_Iter|    Cur_Time|    rms[Rho]|
+--------------------------------------+
|        1710|  0.0000e+00|   -4.999815|
|        1720|  0.0000e+00|   -5.023971|
|        1730|  0.0000e+00|   -5.007118|
|        1740|  0.0000e+00|   -4.968389|
|        1750|  0.0000e+00|   -4.998682|
+-----------------------------------------------------------------------+
|        File Writing Summary       |              Filename             |
+-----------------------------------------------------------------------+
|SU2 binary restart                 |restart_flow_databladeVALIDATION_Blade_23.dat|
|                                   |                     (11289.9 MB/s)|
|Paraview                           |volume_flow_databladeVALIDATION_Blade_23.vtu|
|                                   |                      (1050.9 MB/s)|
|Paraview surface                   |surface_flowdatabladeVALIDATION_Blade_23.vtu|
|                                   |                     (98.5875 MB/s)|
|SU2 ASCII restart                  |restart_flow_databladeVALIDATION_Blade_23.csv|
|                                   |                     (20.1847 MB/s)|
|CSV file                           |surface_flowdatabladeVALIDATION_Blade_23.csv|
|                                   |                     (20.6444 MB/s)|
+-----------------------------------------------------------------------+
+--------------------------------------+
|  Inner_Iter|    Cur_Time|    rms[Rho]|
+--------------------------------------+
|        1760|  0.0000e+00|   -5.027876|
|        1770|  0.0000e+00|   -5.033656|
|        1780|  0.0000e+00|   -5.029519|
|        1790|  0.0000e+00|   -5.051406|
|        1800|  0.0000e+00|   -5.096287|
+-----------------------------------------------------------------------+
|        File Writing Summary       |              Filename             |
+-----------------------------------------------------------------------+
|SU2 binary restart                 |restart_flow_databladeVALIDATION_Blade_23.dat|
|                                   |                       (12101 MB/s)|
|Paraview                           |volume_flow_databladeVALIDATION_Blade_23.vtu|
|                                   |                     (824.961 MB/s)|
|Paraview surface                   |surface_flowdatabladeVALIDATION_Blade_23.vtu|
|                                   |                     (62.7403 MB/s)|
|SU2 ASCII restart                  |restart_flow_databladeVALIDATION_Blade_23.csv|
|                                   |                     (20.1551 MB/s)|
|CSV file                           |surface_flowdatabladeVALIDATION_Blade_23.csv|
|                                   |                     (20.8268 MB/s)|
+-----------------------------------------------------------------------+
+--------------------------------------+
|  Inner_Iter|    Cur_Time|    rms[Rho]|
+--------------------------------------+
|        1810|  0.0000e+00|   -5.148465|
|        1820|  0.0000e+00|   -5.133251|
|        1830|  0.0000e+00|   -5.161001|
|        1840|  0.0000e+00|   -5.157255|
|        1850|  0.0000e+00|   -5.147775|
+-----------------------------------------------------------------------+
|        File Writing Summary       |              Filename             |
+-----------------------------------------------------------------------+
|SU2 binary restart                 |restart_flow_databladeVALIDATION_Blade_23.dat|
|                                   |                     (11658.8 MB/s)|
|Paraview                           |volume_flow_databladeVALIDATION_Blade_23.vtu|
|                                   |                     (751.716 MB/s)|
|Paraview surface                   |surface_flowdatabladeVALIDATION_Blade_23.vtu|
|                                   |                     (88.7782 MB/s)|
|SU2 ASCII restart                  |restart_flow_databladeVALIDATION_Blade_23.csv|
|                                   |                     (20.3188 MB/s)|
|CSV file                           |surface_flowdatabladeVALIDATION_Blade_23.csv|
|                                   |                     (19.4271 MB/s)|
+-----------------------------------------------------------------------+
+--------------------------------------+
|  Inner_Iter|    Cur_Time|    rms[Rho]|
+--------------------------------------+
|        1860|  0.0000e+00|   -5.164653|
|        1870|  0.0000e+00|   -5.171327|
|        1880|  0.0000e+00|   -5.138866|
|        1890|  0.0000e+00|   -5.150069|
|        1900|  0.0000e+00|   -5.170364|
+-----------------------------------------------------------------------+
|        File Writing Summary       |              Filename             |
+-----------------------------------------------------------------------+
|SU2 binary restart                 |restart_flow_databladeVALIDATION_Blade_23.dat|
|                                   |                     (5774.91 MB/s)|
|Paraview                           |volume_flow_databladeVALIDATION_Blade_23.vtu|
|                                   |                     (359.131 MB/s)|
|Paraview surface                   |surface_flowdatabladeVALIDATION_Blade_23.vtu|
|                                   |                     (40.3626 MB/s)|
|SU2 ASCII restart                  |restart_flow_databladeVALIDATION_Blade_23.csv|
|                                   |                     (19.3297 MB/s)|
|CSV file                           |surface_flowdatabladeVALIDATION_Blade_23.csv|
|                                   |                     (20.3898 MB/s)|
+-----------------------------------------------------------------------+
+--------------------------------------+
|  Inner_Iter|    Cur_Time|    rms[Rho]|
+--------------------------------------+
|        1910|  0.0000e+00|   -5.190388|
|        1920|  0.0000e+00|   -5.200847|
|        1930|  0.0000e+00|   -5.210172|
|        1940|  0.0000e+00|   -5.224524|
|        1950|  0.0000e+00|   -5.239283|
+-----------------------------------------------------------------------+
|        File Writing Summary       |              Filename             |
+-----------------------------------------------------------------------+
|SU2 binary restart                 |restart_flow_databladeVALIDATION_Blade_23.dat|
|                                   |                     (12447.7 MB/s)|
|Paraview                           |volume_flow_databladeVALIDATION_Blade_23.vtu|
|                                   |                     (1086.39 MB/s)|
|Paraview surface                   |surface_flowdatabladeVALIDATION_Blade_23.vtu|
|                                   |                     (125.795 MB/s)|
|SU2 ASCII restart                  |restart_flow_databladeVALIDATION_Blade_23.csv|
|                                   |                     (20.2902 MB/s)|
|CSV file                           |surface_flowdatabladeVALIDATION_Blade_23.csv|
|                                   |                     (20.4658 MB/s)|
+-----------------------------------------------------------------------+
+--------------------------------------+
|  Inner_Iter|    Cur_Time|    rms[Rho]|
+--------------------------------------+
|        1960|  0.0000e+00|   -5.252595|
|        1970|  0.0000e+00|   -5.267723|
|        1980|  0.0000e+00|   -5.279800|
|        1990|  0.0000e+00|   -5.286435|
|        2000|  0.0000e+00|   -5.319383|
+-----------------------------------------------------------------------+
|        File Writing Summary       |              Filename             |
+-----------------------------------------------------------------------+
|SU2 binary restart                 |restart_flow_databladeVALIDATION_Blade_23.dat|
|                                   |                     (11868.5 MB/s)|
|Paraview                           |volume_flow_databladeVALIDATION_Blade_23.vtu|
|                                   |                     (1070.65 MB/s)|
|Paraview surface                   |surface_flowdatabladeVALIDATION_Blade_23.vtu|
|                                   |                     (98.7693 MB/s)|
|SU2 ASCII restart                  |restart_flow_databladeVALIDATION_Blade_23.csv|
|                                   |                     (20.5085 MB/s)|
|CSV file                           |surface_flowdatabladeVALIDATION_Blade_23.csv|
|                                   |                     (19.1903 MB/s)|
+-----------------------------------------------------------------------+
+--------------------------------------+
|  Inner_Iter|    Cur_Time|    rms[Rho]|
+--------------------------------------+
|        2010|  0.0000e+00|   -5.314996|
|        2020|  0.0000e+00|   -5.306249|
|        2030|  0.0000e+00|   -5.337991|
|        2040|  0.0000e+00|   -5.341230|
|        2050|  0.0000e+00|   -5.333121|
+-----------------------------------------------------------------------+
|        File Writing Summary       |              Filename             |
+-----------------------------------------------------------------------+
|SU2 binary restart                 |restart_flow_databladeVALIDATION_Blade_23.dat|
|                                   |                     (7064.38 MB/s)|
|Paraview                           |volume_flow_databladeVALIDATION_Blade_23.vtu|
|                                   |                     (461.574 MB/s)|
|Paraview surface                   |surface_flowdatabladeVALIDATION_Blade_23.vtu|
|                                   |                     (92.3312 MB/s)|
|SU2 ASCII restart                  |restart_flow_databladeVALIDATION_Blade_23.csv|
|                                   |                     (19.6088 MB/s)|
|CSV file                           |surface_flowdatabladeVALIDATION_Blade_23.csv|
|                                   |                     (18.0907 MB/s)|
+-----------------------------------------------------------------------+
+--------------------------------------+
|  Inner_Iter|    Cur_Time|    rms[Rho]|
+--------------------------------------+
|        2060|  0.0000e+00|   -5.350308|
|        2070|  0.0000e+00|   -5.338014|
|        2080|  0.0000e+00|   -5.338814|
|        2090|  0.0000e+00|   -5.343968|
|        2100|  0.0000e+00|   -5.355565|
+-----------------------------------------------------------------------+
|        File Writing Summary       |              Filename             |
+-----------------------------------------------------------------------+
|SU2 binary restart                 |restart_flow_databladeVALIDATION_Blade_23.dat|
|                                   |                     (12277.8 MB/s)|
|Paraview                           |volume_flow_databladeVALIDATION_Blade_23.vtu|
|                                   |                     (1027.04 MB/s)|
|Paraview surface                   |surface_flowdatabladeVALIDATION_Blade_23.vtu|
|                                   |                     (99.3718 MB/s)|
|SU2 ASCII restart                  |restart_flow_databladeVALIDATION_Blade_23.csv|
|                                   |                     (20.8852 MB/s)|
|CSV file                           |surface_flowdatabladeVALIDATION_Blade_23.csv|
|                                   |                     (20.1475 MB/s)|
+-----------------------------------------------------------------------+
+--------------------------------------+
|  Inner_Iter|    Cur_Time|    rms[Rho]|
+--------------------------------------+
|        2110|  0.0000e+00|   -5.384617|
|        2120|  0.0000e+00|   -5.380427|
|        2130|  0.0000e+00|   -5.401858|
|        2140|  0.0000e+00|   -5.406062|
|        2150|  0.0000e+00|   -5.403967|
+-----------------------------------------------------------------------+
|        File Writing Summary       |              Filename             |
+-----------------------------------------------------------------------+
|SU2 binary restart                 |restart_flow_databladeVALIDATION_Blade_23.dat|
|                                   |                       (12639 MB/s)|
|Paraview                           |volume_flow_databladeVALIDATION_Blade_23.vtu|
|                                   |                     (1033.55 MB/s)|
|Paraview surface                   |surface_flowdatabladeVALIDATION_Blade_23.vtu|
|                                   |                     (96.6277 MB/s)|
|SU2 ASCII restart                  |restart_flow_databladeVALIDATION_Blade_23.csv|
|                                   |                     (20.6472 MB/s)|
|CSV file                           |surface_flowdatabladeVALIDATION_Blade_23.csv|
|                                   |                     (18.9014 MB/s)|
+-----------------------------------------------------------------------+
+--------------------------------------+
|  Inner_Iter|    Cur_Time|    rms[Rho]|
+--------------------------------------+
|        2160|  0.0000e+00|   -5.400454|
|        2170|  0.0000e+00|   -5.414920|
|        2180|  0.0000e+00|   -5.395538|
|        2190|  0.0000e+00|   -5.427326|
|        2200|  0.0000e+00|   -5.426155|
+-----------------------------------------------------------------------+
|        File Writing Summary       |              Filename             |
+-----------------------------------------------------------------------+
|SU2 binary restart                 |restart_flow_databladeVALIDATION_Blade_23.dat|
|                                   |                       (12121 MB/s)|
|Paraview                           |volume_flow_databladeVALIDATION_Blade_23.vtu|
|                                   |                     (1016.69 MB/s)|
|Paraview surface                   |surface_flowdatabladeVALIDATION_Blade_23.vtu|
|                                   |                     (98.4466 MB/s)|
|SU2 ASCII restart                  |restart_flow_databladeVALIDATION_Blade_23.csv|
|                                   |                     (20.8551 MB/s)|
|CSV file                           |surface_flowdatabladeVALIDATION_Blade_23.csv|
|                                   |                     (19.8696 MB/s)|
+-----------------------------------------------------------------------+
+--------------------------------------+
|  Inner_Iter|    Cur_Time|    rms[Rho]|
+--------------------------------------+
|        2210|  0.0000e+00|   -5.416086|
|        2220|  0.0000e+00|   -5.446295|
|        2230|  0.0000e+00|   -5.438690|
|        2240|  0.0000e+00|   -5.440185|
|        2250|  0.0000e+00|   -5.439725|
+-----------------------------------------------------------------------+
|        File Writing Summary       |              Filename             |
+-----------------------------------------------------------------------+
|SU2 binary restart                 |restart_flow_databladeVALIDATION_Blade_23.dat|
|                                   |                     (11160.5 MB/s)|
|Paraview                           |volume_flow_databladeVALIDATION_Blade_23.vtu|
|                                   |                     (1040.76 MB/s)|
|Paraview surface                   |surface_flowdatabladeVALIDATION_Blade_23.vtu|
|                                   |                     (97.7402 MB/s)|
|SU2 ASCII restart                  |restart_flow_databladeVALIDATION_Blade_23.csv|
|                                   |                     (20.8045 MB/s)|
|CSV file                           |surface_flowdatabladeVALIDATION_Blade_23.csv|
|                                   |                     (20.1552 MB/s)|
+-----------------------------------------------------------------------+
+--------------------------------------+
|  Inner_Iter|    Cur_Time|    rms[Rho]|
+--------------------------------------+
|        2260|  0.0000e+00|   -5.447524|
|        2270|  0.0000e+00|   -5.467331|
|        2280|  0.0000e+00|   -5.489156|
|        2290|  0.0000e+00|   -5.496266|
|        2300|  0.0000e+00|   -5.494443|
+-----------------------------------------------------------------------+
|        File Writing Summary       |              Filename             |
+-----------------------------------------------------------------------+
|SU2 binary restart                 |restart_flow_databladeVALIDATION_Blade_23.dat|
|                                   |                     (12525.8 MB/s)|
|Paraview                           |volume_flow_databladeVALIDATION_Blade_23.vtu|
|                                   |                     (981.866 MB/s)|
|Paraview surface                   |surface_flowdatabladeVALIDATION_Blade_23.vtu|
|                                   |                     (68.4884 MB/s)|
|SU2 ASCII restart                  |restart_flow_databladeVALIDATION_Blade_23.csv|
|                                   |                     (20.5091 MB/s)|
|CSV file                           |surface_flowdatabladeVALIDATION_Blade_23.csv|
|                                   |                     (20.8874 MB/s)|
+-----------------------------------------------------------------------+
+--------------------------------------+
|  Inner_Iter|    Cur_Time|    rms[Rho]|
+--------------------------------------+
|        2310|  0.0000e+00|   -5.499921|
|        2320|  0.0000e+00|   -5.518828|
|        2330|  0.0000e+00|   -5.543351|
|        2340|  0.0000e+00|   -5.558480|
|        2350|  0.0000e+00|   -5.558549|
+-----------------------------------------------------------------------+
|        File Writing Summary       |              Filename             |
+-----------------------------------------------------------------------+
|SU2 binary restart                 |restart_flow_databladeVALIDATION_Blade_23.dat|
|                                   |                       (12730 MB/s)|
|Paraview                           |volume_flow_databladeVALIDATION_Blade_23.vtu|
[...]
+-----------------------------------------------------------------------+
|SU2 binary restart                 |restart_flow_databladeVALIDATION_Blade_23.dat|
|                                   |                     (11314.9 MB/s)|
|Paraview                           |volume_flow_databladeVALIDATION_Blade_23.vtu|
|                                   |                     (966.765 MB/s)|
|Paraview surface                   |surface_flowdatabladeVALIDATION_Blade_23.vtu|
|                                   |                     (90.3282 MB/s)|
|SU2 ASCII restart                  |restart_flow_databladeVALIDATION_Blade_23.csv|
|                                   |                     (20.2671 MB/s)|
|CSV file                           |surface_flowdatabladeVALIDATION_Blade_23.csv|
|                                   |                     (21.6572 MB/s)|
+-----------------------------------------------------------------------+
+--------------------------------------+
|  Inner_Iter|    Cur_Time|    rms[Rho]|
+--------------------------------------+
|        3660|  0.0000e+00|   -6.550650|
|        3670|  0.0000e+00|   -6.572002|
|        3680|  0.0000e+00|   -6.593482|
|        3690|  0.0000e+00|   -6.611447|
|        3700|  0.0000e+00|   -6.649203|
+-----------------------------------------------------------------------+
|        File Writing Summary       |              Filename             |
+-----------------------------------------------------------------------+
|SU2 binary restart                 |restart_flow_databladeVALIDATION_Blade_23.dat|
|                                   |                     (12236.8 MB/s)|
|Paraview                           |volume_flow_databladeVALIDATION_Blade_23.vtu|
|                                   |                     (1039.04 MB/s)|
|Paraview surface                   |surface_flowdatabladeVALIDATION_Blade_23.vtu|
|                                   |                     (135.693 MB/s)|
|SU2 ASCII restart                  |restart_flow_databladeVALIDATION_Blade_23.csv|
|                                   |                     (20.7479 MB/s)|
|CSV file                           |surface_flowdatabladeVALIDATION_Blade_23.csv|
|                                   |                     (20.4439 MB/s)|
+-----------------------------------------------------------------------+
+--------------------------------------+
|  Inner_Iter|    Cur_Time|    rms[Rho]|
+--------------------------------------+
|        3710|  0.0000e+00|   -6.652951|
|        3720|  0.0000e+00|   -6.616104|
|        3730|  0.0000e+00|   -6.651827|
|        3740|  0.0000e+00|   -6.663751|
|        3750|  0.0000e+00|   -6.654328|
+-----------------------------------------------------------------------+
|        File Writing Summary       |              Filename             |
+-----------------------------------------------------------------------+
|SU2 binary restart                 |restart_flow_databladeVALIDATION_Blade_23.dat|
|                                   |                     (11799.3 MB/s)|
|Paraview                           |volume_flow_databladeVALIDATION_Blade_23.vtu|
|                                   |                      (1069.3 MB/s)|
|Paraview surface                   |surface_flowdatabladeVALIDATION_Blade_23.vtu|
|                                   |                     (97.4518 MB/s)|
|SU2 ASCII restart                  |restart_flow_databladeVALIDATION_Blade_23.csv|
|                                   |                     (20.6895 MB/s)|
|CSV file                           |surface_flowdatabladeVALIDATION_Blade_23.csv|
|                                   |                     (19.4251 MB/s)|
+-----------------------------------------------------------------------+
+--------------------------------------+
|  Inner_Iter|    Cur_Time|    rms[Rho]|
+--------------------------------------+
|        3760|  0.0000e+00|   -6.642912|
|        3770|  0.0000e+00|   -6.657490|
|        3780|  0.0000e+00|   -6.665790|
|        3790|  0.0000e+00|   -6.676127|
|        3800|  0.0000e+00|   -6.693743|
+-----------------------------------------------------------------------+
|        File Writing Summary       |              Filename             |
+-----------------------------------------------------------------------+
|SU2 binary restart                 |restart_flow_databladeVALIDATION_Blade_23.dat|
|                                   |                     (13079.7 MB/s)|
|Paraview                           |volume_flow_databladeVALIDATION_Blade_23.vtu|
|                                   |                     (1055.57 MB/s)|
|Paraview surface                   |surface_flowdatabladeVALIDATION_Blade_23.vtu|
|                                   |                     (116.596 MB/s)|
|SU2 ASCII restart                  |restart_flow_databladeVALIDATION_Blade_23.csv|
|                                   |                     (20.3503 MB/s)|
|CSV file                           |surface_flowdatabladeVALIDATION_Blade_23.csv|
|                                   |                     (20.5019 MB/s)|
+-----------------------------------------------------------------------+
+--------------------------------------+
|  Inner_Iter|    Cur_Time|    rms[Rho]|
+--------------------------------------+
|        3810|  0.0000e+00|   -6.709864|
|        3820|  0.0000e+00|   -6.717653|
|        3830|  0.0000e+00|   -6.721044|
|        3840|  0.0000e+00|   -6.728353|
|        3850|  0.0000e+00|   -6.743121|
+-----------------------------------------------------------------------+
|        File Writing Summary       |              Filename             |
+-----------------------------------------------------------------------+
|SU2 binary restart                 |restart_flow_databladeVALIDATION_Blade_23.dat|
|                                   |                     (11165.4 MB/s)|
|Paraview                           |volume_flow_databladeVALIDATION_Blade_23.vtu|
|                                   |                     (1137.18 MB/s)|
|Paraview surface                   |surface_flowdatabladeVALIDATION_Blade_23.vtu|
|                                   |                     (128.572 MB/s)|
|SU2 ASCII restart                  |restart_flow_databladeVALIDATION_Blade_23.csv|
|                                   |                     (20.7209 MB/s)|
|CSV file                           |surface_flowdatabladeVALIDATION_Blade_23.csv|
|                                   |                     (18.8556 MB/s)|
+-----------------------------------------------------------------------+
+--------------------------------------+
|  Inner_Iter|    Cur_Time|    rms[Rho]|
+--------------------------------------+
|        3860|  0.0000e+00|   -6.761237|
|        3870|  0.0000e+00|   -6.774162|
|        3880|  0.0000e+00|   -6.781203|
|        3890|  0.0000e+00|   -6.790636|
|        3900|  0.0000e+00|   -6.804590|
+-----------------------------------------------------------------------+
|        File Writing Summary       |              Filename             |
+-----------------------------------------------------------------------+
|SU2 binary restart                 |restart_flow_databladeVALIDATION_Blade_23.dat|
|                                   |                     (11440.3 MB/s)|
|Paraview                           |volume_flow_databladeVALIDATION_Blade_23.vtu|
|                                   |                     (1042.42 MB/s)|
|Paraview surface                   |surface_flowdatabladeVALIDATION_Blade_23.vtu|
|                                   |                     (98.1101 MB/s)|
|SU2 ASCII restart                  |restart_flow_databladeVALIDATION_Blade_23.csv|
|                                   |                      (20.311 MB/s)|
|CSV file                           |surface_flowdatabladeVALIDATION_Blade_23.csv|
|                                   |                     (19.9633 MB/s)|
+-----------------------------------------------------------------------+
+--------------------------------------+
|  Inner_Iter|    Cur_Time|    rms[Rho]|
+--------------------------------------+
|        3910|  0.0000e+00|   -6.814905|
|        3920|  0.0000e+00|   -6.818787|
|        3930|  0.0000e+00|   -6.823797|
|        3940|  0.0000e+00|   -6.861993|
|        3950|  0.0000e+00|   -6.860945|
+-----------------------------------------------------------------------+
|        File Writing Summary       |              Filename             |
+-----------------------------------------------------------------------+
|SU2 binary restart                 |restart_flow_databladeVALIDATION_Blade_23.dat|
|                                   |                     (11961.7 MB/s)|
|Paraview                           |volume_flow_databladeVALIDATION_Blade_23.vtu|
|                                   |                     (1048.32 MB/s)|
|Paraview surface                   |surface_flowdatabladeVALIDATION_Blade_23.vtu|
|                                   |                     (130.493 MB/s)|
|SU2 ASCII restart                  |restart_flow_databladeVALIDATION_Blade_23.csv|
|                                   |                     (20.4414 MB/s)|
|CSV file                           |surface_flowdatabladeVALIDATION_Blade_23.csv|
|                                   |                     (19.5928 MB/s)|
+-----------------------------------------------------------------------+
+--------------------------------------+
|  Inner_Iter|    Cur_Time|    rms[Rho]|
+--------------------------------------+
|        3960|  0.0000e+00|   -6.852360|
|        3970|  0.0000e+00|   -6.878930|
|        3980|  0.0000e+00|   -6.888872|
|        3990|  0.0000e+00|   -6.885217|
|        4000|  0.0000e+00|   -6.874672|
+-----------------------------------------------------------------------+
|        File Writing Summary       |              Filename             |
+-----------------------------------------------------------------------+
|SU2 binary restart                 |restart_flow_databladeVALIDATION_Blade_23.dat|
|                                   |                       (11539 MB/s)|
|Paraview                           |volume_flow_databladeVALIDATION_Blade_23.vtu|
|                                   |                     (1013.41 MB/s)|
|Paraview surface                   |surface_flowdatabladeVALIDATION_Blade_23.vtu|
|                                   |                     (96.7479 MB/s)|
|SU2 ASCII restart                  |restart_flow_databladeVALIDATION_Blade_23.csv|
|                                   |                      (20.191 MB/s)|
|CSV file                           |surface_flowdatabladeVALIDATION_Blade_23.csv|
|                                   |                     (18.9485 MB/s)|
+-----------------------------------------------------------------------+
+--------------------------------------+
|  Inner_Iter|    Cur_Time|    rms[Rho]|
+--------------------------------------+
|        4010|  0.0000e+00|   -6.899543|
|        4020|  0.0000e+00|   -6.894313|
|        4030|  0.0000e+00|   -6.877381|
|        4040|  0.0000e+00|   -6.909135|
|        4050|  0.0000e+00|   -6.886892|
+-----------------------------------------------------------------------+
|        File Writing Summary       |              Filename             |
+-----------------------------------------------------------------------+
|SU2 binary restart                 |restart_flow_databladeVALIDATION_Blade_23.dat|
|                                   |                      (9921.4 MB/s)|
|Paraview                           |volume_flow_databladeVALIDATION_Blade_23.vtu|
|                                   |                     (983.156 MB/s)|
|Paraview surface                   |surface_flowdatabladeVALIDATION_Blade_23.vtu|
|                                   |                     (110.045 MB/s)|
|SU2 ASCII restart                  |restart_flow_databladeVALIDATION_Blade_23.csv|
|                                   |                     (20.9517 MB/s)|
|CSV file                           |surface_flowdatabladeVALIDATION_Blade_23.csv|
|                                   |                     (21.2732 MB/s)|
+-----------------------------------------------------------------------+
+--------------------------------------+
|  Inner_Iter|    Cur_Time|    rms[Rho]|
+--------------------------------------+
|        4060|  0.0000e+00|   -6.893093|
|        4070|  0.0000e+00|   -6.900395|
|        4080|  0.0000e+00|   -6.909952|
|        4090|  0.0000e+00|   -6.943311|
|        4100|  0.0000e+00|   -6.946907|
+-----------------------------------------------------------------------+
|        File Writing Summary       |              Filename             |
+-----------------------------------------------------------------------+
|SU2 binary restart                 |restart_flow_databladeVALIDATION_Blade_23.dat|
|                                   |                     (12182.5 MB/s)|
|Paraview                           |volume_flow_databladeVALIDATION_Blade_23.vtu|
|                                   |                      (1040.8 MB/s)|
|Paraview surface                   |surface_flowdatabladeVALIDATION_Blade_23.vtu|
|                                   |                     (96.2189 MB/s)|
|SU2 ASCII restart                  |restart_flow_databladeVALIDATION_Blade_23.csv|
|                                   |                     (20.6161 MB/s)|
|CSV file                           |surface_flowdatabladeVALIDATION_Blade_23.csv|
|                                   |                     (19.5707 MB/s)|
+-----------------------------------------------------------------------+
+--------------------------------------+
|  Inner_Iter|    Cur_Time|    rms[Rho]|
+--------------------------------------+
|        4110|  0.0000e+00|   -6.940026|
|        4120|  0.0000e+00|   -6.954421|
|        4130|  0.0000e+00|   -6.969348|
|        4140|  0.0000e+00|   -6.967714|
|        4150|  0.0000e+00|   -6.954343|
+-----------------------------------------------------------------------+
|        File Writing Summary       |              Filename             |
+-----------------------------------------------------------------------+
|SU2 binary restart                 |restart_flow_databladeVALIDATION_Blade_23.dat|
|                                   |                     (12703.8 MB/s)|
|Paraview                           |volume_flow_databladeVALIDATION_Blade_23.vtu|
|                                   |                     (1058.69 MB/s)|
|Paraview surface                   |surface_flowdatabladeVALIDATION_Blade_23.vtu|
|                                   |                     (97.8037 MB/s)|
|SU2 ASCII restart                  |restart_flow_databladeVALIDATION_Blade_23.csv|
|                                   |                      (20.878 MB/s)|
|CSV file                           |surface_flowdatabladeVALIDATION_Blade_23.csv|
|                                   |                      (21.919 MB/s)|
+-----------------------------------------------------------------------+
+--------------------------------------+
|  Inner_Iter|    Cur_Time|    rms[Rho]|
+--------------------------------------+
|        4160|  0.0000e+00|   -6.980463|
|        4170|  0.0000e+00|   -6.975738|
|        4180|  0.0000e+00|   -6.974548|
|        4190|  0.0000e+00|   -6.993020|
|        4200|  0.0000e+00|   -6.971861|
+-----------------------------------------------------------------------+
|        File Writing Summary       |              Filename             |
+-----------------------------------------------------------------------+
|SU2 binary restart                 |restart_flow_databladeVALIDATION_Blade_23.dat|
|                                   |                       (11329 MB/s)|
|Paraview                           |volume_flow_databladeVALIDATION_Blade_23.vtu|
|                                   |                     (737.705 MB/s)|
|Paraview surface                   |surface_flowdatabladeVALIDATION_Blade_23.vtu|
|                                   |                     (93.2634 MB/s)|
|SU2 ASCII restart                  |restart_flow_databladeVALIDATION_Blade_23.csv|
|                                   |                     (20.8838 MB/s)|
|CSV file                           |surface_flowdatabladeVALIDATION_Blade_23.csv|
|                                   |                     (20.6074 MB/s)|
+-----------------------------------------------------------------------+
+--------------------------------------+
|  Inner_Iter|    Cur_Time|    rms[Rho]|
+--------------------------------------+
|        4210|  0.0000e+00|   -6.974411|
|        4220|  0.0000e+00|   -6.980263|
|        4230|  0.0000e+00|   -6.991960|
|        4236|  0.0000e+00|   -7.001373|

----------------------------- Solver Exit -------------------------------
All convergence criteria satisfied.
+-----------------------------------------------------------------------+
|      Convergence Field     |     Value    |   Criterion  |  Converged |
+-----------------------------------------------------------------------+
|                    rms[Rho]|      -7.00137|          < -7|         Yes|
+-----------------------------------------------------------------------+
-------------------------------------------------------------------------
+-----------------------------------------------------------------------+
|        File Writing Summary       |              Filename             |
+-----------------------------------------------------------------------+
|SU2 binary restart                 |restart_flow_databladeVALIDATION_Blade_23.dat|
|                                   |                     (12429.6 MB/s)|
|Paraview                           |volume_flow_databladeVALIDATION_Blade_23.vtu|
|                                   |                     (1048.44 MB/s)|
|Paraview surface                   |surface_flowdatabladeVALIDATION_Blade_23.vtu|
|                                   |                     (94.2773 MB/s)|
|SU2 ASCII restart                  |restart_flow_databladeVALIDATION_Blade_23.csv|
|                                   |                      (21.052 MB/s)|
|CSV file                           |surface_flowdatabladeVALIDATION_Blade_23.csv|
|                                   |                     (19.3034 MB/s)|
+-----------------------------------------------------------------------+

--------------------------- Finalizing Solver ---------------------------
Deleted CNumerics container.
Deleted CIntegration container.
Deleted CSolver container.
Deleted CIteration container.
Deleted CInterface container.
Deleted CGeometry container.
Deleted CFreeFormDefBox class.
Deleted CSurfaceMovement class.
Deleted CVolumetricMovement class.
Deleted CConfig container.
Deleted nInst container.
Deleted COutput class.
-------------------------------------------------------------------------


-------------------------- Performance Summary --------------------------
Simulation totals:
   Wall-clock time (hrs):    0.132502 |            Core-hrs:     1.59002
                   Cores:          12 |          DOFs/point:           5
             Points/core:     4850.33 |   Ghost points/core:      158.25
 Ghost/Owned Point Ratio:   0.0326266 | 

Preprocessing phase:
       Preproc. Time (s):    0.536536 |   Preproc. Time (%):     0.11248

Compute phase:
        Compute Time (s):     474.238 |    Compute Time (%):     99.4194
         Iteration count:        4237 |         Avg. s/iter:    0.111928
     Core-s/iter/Mpoints:     22.3472 |           Mpoints/s:    0.536981

Output phase:
         Output Time (s):     2.23297 |     Output Time (%):    0.468122
            Output count:           1 |       Avg. s/output:     2.23297
 Restart Aggr. BW (MB/s):      980227 |           MB/s/core:     81685.6
-------------------------------------------------------------------------


------------------------- Exit Success (SU2_CFD) ------------------------

