
-------------------------------------------------------------------------
|    ___ _   _ ___                                                      |
|   / __| | | |_  )   Release 8.0.1 "Harrier"                           |
|   \__ \ |_| |/ /                                                      |
|   |___/\___//___|   Suite (Computational Fluid Dynamics Code)         |
|                                                                       |
-------------------------------------------------------------------------
| SU2 Project Website: https://su2code.github.io                        |
|                                                                       |
| The SU2 Project is maintained by the SU2 Foundation                   |
| (http://su2foundation.org)                                            |
-------------------------------------------------------------------------
| Copyright 2012-2024, SU2 Contributors                                 |
|                                                                       |
| SU2 is free software; you can redistribute it and/or                  |
| modify it under the terms of the GNU Lesser General Public            |
| License as published by the Free Software Foundation; either          |
| version 2.1 of the License, or (at your option) any later version.    |
|                                                                       |
| SU2 is distributed in the hope that it will be useful,                |
| but WITHOUT ANY WARRANTY; without even the implied warranty of        |
| MERCHANTABILITY or FITNESS FOR A PARTICULAR PURPOSE. See the GNU      |
| Lesser General Public License for more details.                       |
|                                                                       |
| You should have received a copy of the GNU Lesser General Public      |
| License along with SU2. If not, see <http://www.gnu.org/licenses/>.   |
-------------------------------------------------------------------------

Parsing config file for zone 0

----------------- Physical Case Definition ( Zone 0 ) -------------------
Compressible RANS equations.
Turbulence model: Spalart-Allmaras-noft2-BCM
Hybrid RANS/LES: No Hybrid RANS/LES
Mach number: 0.667.
Angle of attack (AoA): -19 deg, and angle of sideslip (AoS): 0 deg.
Reynolds number: 600000. Reference length 1.00146.
No restart solution, use the values at infinity (freestream).
Dimensional simulation.
The reference area will be computed using y(2D) or z(3D) projection.
The semi-span will be computed using the max y(3D) value.
The reference length is 1.00146 m.
Reference origin for moment evaluation is (0, 0, 0).
Surface(s) where the force coefficients are evaluated: blade1.

Surface(s) plotted in the output file: blade1.
Surface(s) to be analyzed in detail: inlet, outlet, blade1.
Input mesh file name: cascade2D_databladeVALIDATION_Blade_21.su2

--------------- Space Numerical Integration ( Zone 0 ) ------------------
Jameson-Schmidt-Turkel scheme (2nd order in space) for the flow inviscid terms.
JST viscous coefficients (2nd & 4th): 0.5, 0.02.
The method includes a grid stretching correction (p = 0.3).
Scalar upwind solver for the turbulence model.
First order integration in space.
Average of gradients with correction (viscous flow terms).
Average of gradients with correction (viscous turbulence terms).
Gradient for upwind reconstruction: inverse-distance weighted Least-Squares.
Gradient for viscous and source terms: inverse-distance weighted Least-Squares.

--------------- Time Numerical Integration  ( Zone 0 ) ------------------
Local time stepping (steady state simulation).
Euler implicit method for the flow equations.
FGMRES is used for solving the linear system.
Using a LU-SGS preconditioning.
Convergence criteria of the linear solver: 0.0001.
Max number of linear iterations: 10.
V Multigrid Cycle, with 3 multigrid levels.
Damping factor for the residual restriction: 0.75.
Damping factor for the correction prolongation: 0.75.
CFL adaptation. Factor down: 0.1, factor up: 1.2,
                lower limit: 0.1, upper limit: 100,
                acceptable linear residual: 0.001.
+-------------------------------------------+
|  MG Level| Presmooth|PostSmooth|CorrectSmo|
+-------------------------------------------+
|         0|         1|         0|         1|
|         1|         2|         2|         2|
|         2|         3|         3|         3|
|         3|         3|         0|         0|
+-------------------------------------------+
Courant-Friedrichs-Lewy number:       12
Euler implicit time integration for the turbulence model.

------------------ Convergence Criteria  ( Zone 0 ) ---------------------
Maximum number of solver subiterations: 7000.
Begin convergence monitoring at iteration 500.
Residual minimum value: 1e-7.
Cauchy series min. value: 1e-10.
Number of Cauchy elements: 100.
Begin windowed time average at iteration 0.

-------------------- Output Information ( Zone 0 ) ----------------------
File writing frequency: 
+------------------------------------+
|                     File| Frequency|
+------------------------------------+
|                  RESTART|        50|
|                 PARAVIEW|        50|
|         SURFACE_PARAVIEW|        50|
|                      CSV|        50|
|              SURFACE_CSV|        50|
+------------------------------------+
Writing the convergence history file every 1 inner iterations.
Writing the screen convergence history every 10 inner iterations.
The tabular file format is CSV (.csv).
Convergence history file name: history_databladeVALIDATION_Blade_21.
Forces breakdown file name: forces_breakdown.dat.
Surface file name: surface_flowdatabladeVALIDATION_Blade_21.
Volume file name: volume_flow_databladeVALIDATION_Blade_21.
Restart file name: restart_flow_databladeVALIDATION_Blade_21.dat.

------------- Config File Boundary Information ( Zone 0 ) ---------------
+-----------------------------------------------------------------------+
|                        Marker Type|                        Marker Name|
+-----------------------------------------------------------------------+
|                  Periodic boundary|               symmetricWallsBOTTOM|
|                                   |                  symmetricWallsTOP|
+-----------------------------------------------------------------------+
|                     Inlet boundary|                              inlet|
+-----------------------------------------------------------------------+
|                    Outlet boundary|                             outlet|
+-----------------------------------------------------------------------+
|                     Heat flux wall|                             blade1|
|                                   |                             blade2|
+-----------------------------------------------------------------------+

-------------------- Output Preprocessing ( Zone 0 ) --------------------
  Info: Ignoring the following screen output fields:
  LINSOL_ITER_TRANS, LINSOL_RESIDUAL_TRANS
Screen output fields: INNER_ITER, WALL_TIME, RMS_DENSITY
  Info: Ignoring the following history output groups:
  RMS_TKE, RMS_DISSIPATION
History output group(s): INNER_ITER, WALL_TIME, RMS_DENSITY, RMS_MOMENTUM-X, RMS_ENERGY, LINSOL, CFL_NUMBER, FLOW_COEFF_SURF, AERO_COEFF_SURF
Convergence field(s): RMS_DENSITY
Warning: No (valid) fields chosen for time convergence monitoring. Time convergence monitoring inactive.
Volume output fields: COORDINATES, SOLUTION, PRIMITIVE, RESIDUAL, TIMESTEP, MESH_QUALITY, VORTEX_IDENTIFICATION

------------------- Geometry Preprocessing ( Zone 0 ) -------------------
Two dimensional problem.
59212 grid points before partitioning.
88010 volume elements before partitioning.
5 surface markers.
27 boundary elements in index 0 (Marker = inlet).
355 boundary elements in index 1 (Marker = symmetricWallsBOTTOM).
355 boundary elements in index 2 (Marker = symmetricWallsTOP).
27 boundary elements in index 3 (Marker = outlet).
1186 boundary elements in index 4 (Marker = blade1).
Executing the partitioning functions.
Building the graph adjacency structure.
Calling ParMETIS... graph partitioning complete (1314 edge cuts).
Distributing ParMETIS coloring.
Rebalancing vertices.
Rebalancing volume element connectivity.
Rebalancing markers and surface elements.
60910 vertices including ghost points. 
89314 interior elements including halo cells. 
60480 triangles.
28834 quadrilaterals.
Establishing MPI communication patterns.
Setting point connectivity.
Renumbering points (Reverse Cuthill McKee Ordering).
Recomputing point connectivity.
Setting element connectivity.
Checking the numerical grid orientation.
All volume elements are correctly orientend.
There has been a re-orientation of 986 LINE surface elements.
Identifying edges and vertices.
Setting the control volume structure.
Area of the computational grid: 3.50697.
Searching for the closest normal neighbors to the surfaces.
Storing a mapping from global to local point index.
Compute the surface curvature.
Max K: 114.177. Mean K: 3.42256. Standard deviation K: 11.7599.
Checking for periodicity.
WARNING: Periodicity has been detected. Disabling multigrid. 
Computing mesh quality statistics for the dual control volumes.
+--------------------------------------------------------------+
|           Mesh Quality Metric|        Minimum|        Maximum|
+--------------------------------------------------------------+
|    Orthogonality Angle (deg.)|        41.2104|             90|
|     CV Face Area Aspect Ratio|        1.00025|        339.428|
|           CV Sub-Volume Ratio|              1|        21.0136|
+--------------------------------------------------------------+
Finding max control volume width.
Communicating number of neighbors.
Reference length = 1.01904 m.
Wetted area = 3.15731 m.
Area projection in the x-plane = 1.05933 m, y-plane = 1.01904 m.
Max. coordinate in the x-direction = 1.01606 m, y-direction = 0.827246 m.
Min. coordinate in the x-direction = -0.00299233 m, y-direction = -0.232097 m.
Matching the periodic boundary points for marker pair 1.
 Matched 712 points with a max distance of: 9.95382e-14.
Computing wall distances.

-------------------- Solver Preprocessing ( Zone 0 ) --------------------
Viscous flow: Computing pressure using the ideal gas law
based on the free-stream temperature and a density computed
from the Reynolds number.
Force coefficients computed using free-stream values.

-- Models:
+------------------------------------------------------------------------------+
|          Viscosity Model|        Conductivity Model|              Fluid Model|
+------------------------------------------------------------------------------+
|               SUTHERLAND|          CONSTANT_PRANDTL|                IDEAL_GAS|
+------------------------------------------------------------------------------+
-- Fluid properties:
+------------------------------------------------------------------------------+
|                  Name|    Dim. value|    Ref. value|      Unit|Non-dim. value|
+------------------------------------------------------------------------------+
|        Ref. Viscosity|     1.716e-05|             1|   N.s/m^2|     1.716e-05|
|      Sutherland Temp.|        273.15|             1|         K|        273.15|
|     Sutherland Const.|         110.4|             1|         K|         110.4|
+------------------------------------------------------------------------------+
|        Prandtl (Lam.)|             -|             -|         -|          0.72|
|       Prandtl (Turb.)|             -|             -|         -|           0.9|
+------------------------------------------------------------------------------+
|          Gas Constant|       287.058|             1|  N.m/kg.K|       287.058|
|      Spec. Heat Ratio|             -|             -|         -|           1.4|
+------------------------------------------------------------------------------+
-- Initial and free-stream conditions:
+------------------------------------------------------------------------------+
|                  Name|    Dim. value|    Ref. value|      Unit|Non-dim. value|
+------------------------------------------------------------------------------+
|       Static Pressure|       4112.31|             1|        Pa|       4112.31|
|               Density|     0.0477524|             1|    kg/m^3|     0.0477524|
|           Temperature|           300|             1|         K|           300|
|          Total Energy|        242112|             1|   m^2/s^2|        242112|
|            Velocity-X|        218.98|             1|       m/s|        218.98|
|            Velocity-Y|       -75.401|             1|       m/s|       -75.401|
|    Velocity Magnitude|       231.598|             1|       m/s|       231.598|
+------------------------------------------------------------------------------+
|             Viscosity|   1.84592e-05|             1|   N.s/m^2|   1.84592e-05|
|          Conductivity|             -|             1|   W/m^2.K|             -|
|     Turb. Kin. Energy|       98.5594|             1|   m^2/s^2|       98.5594|
|     Spec. Dissipation|   2.54965e+06|             1|       1/s|   2.54965e+06|
+------------------------------------------------------------------------------+
|           Mach Number|             -|             -|         -|         0.667|
|       Reynolds Number|             -|             -|         -|        600000|
+------------------------------------------------------------------------------+
Initialize Jacobian structure (Navier-Stokes). MG level: 0.
Initialize Jacobian structure (SA model).

------------------- Numerics Preprocessing ( Zone 0 ) -------------------

----------------- Integration Preprocessing ( Zone 0 ) ------------------

------------------- Iteration Preprocessing ( Zone 0 ) ------------------
Euler/Navier-Stokes/RANS fluid iteration.

------------------------------ Begin Solver -----------------------------

Simulation Run using the Single-zone Driver
WARNING: SU2 was not compiled for an AVX-capable architecture. Performance could be better,
         see https://su2code.github.io/docs_v7/Build-SU2-Linux-MacOS/#compiler-optimizations
+--------------------------------------+
|  Inner_Iter|   Time(sec)|    rms[Rho]|
+--------------------------------------+
|           0|  7.1411e-02|   -2.444983|
|          10|  6.0261e-02|   -3.086895|
|          20|  6.4773e-02|   -2.906191|
|          30|  6.3146e-02|   -2.874547|
|          40|  6.1828e-02|   -2.794059|
|          50|  6.2543e-02|   -2.833680|
+-----------------------------------------------------------------------+
|        File Writing Summary       |              Filename             |
+-----------------------------------------------------------------------+
|SU2 binary restart                 |restart_flow_databladeVALIDATION_Blade_21.dat|
|                                   |                       (13449 MB/s)|
|Paraview                           |volume_flow_databladeVALIDATION_Blade_21.vtu|
|                                   |                     (1043.61 MB/s)|
|Paraview surface                   |surface_flowdatabladeVALIDATION_Blade_21.vtu|
|                                   |                     (82.1194 MB/s)|
|SU2 ASCII restart                  |restart_flow_databladeVALIDATION_Blade_21.csv|
|                                   |                     (22.4484 MB/s)|
|CSV file                           |surface_flowdatabladeVALIDATION_Blade_21.csv|
|                                   |                     (22.2769 MB/s)|
+-----------------------------------------------------------------------+
+--------------------------------------+
|  Inner_Iter|   Time(sec)|    rms[Rho]|
+--------------------------------------+
|          60|  9.8152e-02|   -2.929691|
|          70|  9.2437e-02|   -3.047350|
|          80|  8.8320e-02|   -3.001936|
|          90|  8.5825e-02|   -2.884645|
|         100|  8.3524e-02|   -2.925572|
+-----------------------------------------------------------------------+
|        File Writing Summary       |              Filename             |
+-----------------------------------------------------------------------+
|SU2 binary restart                 |restart_flow_databladeVALIDATION_Blade_21.dat|
|                                   |                     (11904.8 MB/s)|
|Paraview                           |volume_flow_databladeVALIDATION_Blade_21.vtu|
|                                   |                     (1050.88 MB/s)|
|Paraview surface                   |surface_flowdatabladeVALIDATION_Blade_21.vtu|
|                                   |                     (126.548 MB/s)|
|SU2 ASCII restart                  |restart_flow_databladeVALIDATION_Blade_21.csv|
|                                   |                     (22.0877 MB/s)|
|CSV file                           |surface_flowdatabladeVALIDATION_Blade_21.csv|
|                                   |                     (22.7477 MB/s)|
+-----------------------------------------------------------------------+
+--------------------------------------+
|  Inner_Iter|   Time(sec)|    rms[Rho]|
+--------------------------------------+
|         110|  1.0055e-01|   -2.963943|
|         120|  9.7423e-02|   -2.927603|
|         130|  9.4866e-02|   -2.949613|
|         140|  9.2343e-02|   -3.089074|
|         150|  9.0172e-02|   -3.104006|
+-----------------------------------------------------------------------+
|        File Writing Summary       |              Filename             |
+-----------------------------------------------------------------------+
|SU2 binary restart                 |restart_flow_databladeVALIDATION_Blade_21.dat|
|                                   |                     (6473.28 MB/s)|
|Paraview                           |volume_flow_databladeVALIDATION_Blade_21.vtu|
|                                   |                     (1019.86 MB/s)|
|Paraview surface                   |surface_flowdatabladeVALIDATION_Blade_21.vtu|
|                                   |                     (92.2358 MB/s)|
|SU2 ASCII restart                  |restart_flow_databladeVALIDATION_Blade_21.csv|
|                                   |                     (21.5697 MB/s)|
|CSV file                           |surface_flowdatabladeVALIDATION_Blade_21.csv|
|                                   |                     (22.7962 MB/s)|
+-----------------------------------------------------------------------+
+--------------------------------------+
|  Inner_Iter|   Time(sec)|    rms[Rho]|
+--------------------------------------+
|         160|  1.0230e-01|   -2.879076|
|         170|  9.9648e-02|   -2.931231|
|         180|  9.7001e-02|   -2.951856|
|         190|  9.5216e-02|   -2.929877|
|         200|  9.3649e-02|   -3.098740|
+-----------------------------------------------------------------------+
|        File Writing Summary       |              Filename             |
+-----------------------------------------------------------------------+
|SU2 binary restart                 |restart_flow_databladeVALIDATION_Blade_21.dat|
|                                   |                     (8644.75 MB/s)|
|Paraview                           |volume_flow_databladeVALIDATION_Blade_21.vtu|
|                                   |                     (1056.38 MB/s)|
|Paraview surface                   |surface_flowdatabladeVALIDATION_Blade_21.vtu|
|                                   |                     (98.8503 MB/s)|
|SU2 ASCII restart                  |restart_flow_databladeVALIDATION_Blade_21.csv|
|                                   |                     (21.4549 MB/s)|
|CSV file                           |surface_flowdatabladeVALIDATION_Blade_21.csv|
|                                   |                     (22.6403 MB/s)|
+-----------------------------------------------------------------------+
+--------------------------------------+
|  Inner_Iter|   Time(sec)|    rms[Rho]|
+--------------------------------------+
|         210|  1.0237e-01|   -3.168576|
|         220|  1.0032e-01|   -3.119217|
|         230|  9.8697e-02|   -3.082881|
|         240|  9.7217e-02|   -3.110886|
|         250|  9.5561e-02|   -3.211643|
+-----------------------------------------------------------------------+
|        File Writing Summary       |              Filename             |
+-----------------------------------------------------------------------+
|SU2 binary restart                 |restart_flow_databladeVALIDATION_Blade_21.dat|
|                                   |                     (12488.2 MB/s)|
|Paraview                           |volume_flow_databladeVALIDATION_Blade_21.vtu|
|                                   |                     (1045.31 MB/s)|
|Paraview surface                   |surface_flowdatabladeVALIDATION_Blade_21.vtu|
|                                   |                     (88.8043 MB/s)|
|SU2 ASCII restart                  |restart_flow_databladeVALIDATION_Blade_21.csv|
|                                   |                     (21.9495 MB/s)|
|CSV file                           |surface_flowdatabladeVALIDATION_Blade_21.csv|
|                                   |                     (21.0868 MB/s)|
+-----------------------------------------------------------------------+
+--------------------------------------+
|  Inner_Iter|   Time(sec)|    rms[Rho]|
+--------------------------------------+
|         260|  1.0256e-01|   -3.182610|
|         270|  1.0109e-01|   -3.153698|
|         280|  9.9597e-02|   -3.136163|
|         290|  9.8133e-02|   -3.170853|
|         300|  9.7086e-02|   -3.235038|
+-----------------------------------------------------------------------+
|        File Writing Summary       |              Filename             |
+-----------------------------------------------------------------------+
|SU2 binary restart                 |restart_flow_databladeVALIDATION_Blade_21.dat|
|                                   |                     (7192.57 MB/s)|
|Paraview                           |volume_flow_databladeVALIDATION_Blade_21.vtu|
|                                   |                     (963.927 MB/s)|
|Paraview surface                   |surface_flowdatabladeVALIDATION_Blade_21.vtu|
|                                   |                     (87.1857 MB/s)|
|SU2 ASCII restart                  |restart_flow_databladeVALIDATION_Blade_21.csv|
|                                   |                     (21.8573 MB/s)|
|CSV file                           |surface_flowdatabladeVALIDATION_Blade_21.csv|
|                                   |                     (21.2469 MB/s)|
+-----------------------------------------------------------------------+
+--------------------------------------+
|  Inner_Iter|   Time(sec)|    rms[Rho]|
+--------------------------------------+
|         310|  1.0316e-01|   -3.227151|
|         320|  1.0108e-01|   -3.257417|
|         330|  9.9451e-02|   -3.364057|
|         340|  9.8154e-02|   -3.422024|
|         350|  9.7125e-02|   -3.358827|
+-----------------------------------------------------------------------+
|        File Writing Summary       |              Filename             |
+-----------------------------------------------------------------------+
|SU2 binary restart                 |restart_flow_databladeVALIDATION_Blade_21.dat|
|                                   |                     (12740.5 MB/s)|
|Paraview                           |volume_flow_databladeVALIDATION_Blade_21.vtu|
|                                   |                     (1026.12 MB/s)|
|Paraview surface                   |surface_flowdatabladeVALIDATION_Blade_21.vtu|
|                                   |                     (99.7955 MB/s)|
|SU2 ASCII restart                  |restart_flow_databladeVALIDATION_Blade_21.csv|
|                                   |                     (22.0249 MB/s)|
|CSV file                           |surface_flowdatabladeVALIDATION_Blade_21.csv|
|                                   |                     (21.7306 MB/s)|
+-----------------------------------------------------------------------+
+--------------------------------------+
|  Inner_Iter|   Time(sec)|    rms[Rho]|
+--------------------------------------+
|         360|  1.0200e-01|   -3.408874|
|         370|  1.0066e-01|   -3.447204|
|         380|  9.9672e-02|   -3.424148|
|         390|  9.8675e-02|   -3.463878|
|         400|  9.7638e-02|   -3.533906|
+-----------------------------------------------------------------------+
|        File Writing Summary       |              Filename             |
+-----------------------------------------------------------------------+
|SU2 binary restart                 |restart_flow_databladeVALIDATION_Blade_21.dat|
|                                   |                     (12324.9 MB/s)|
|Paraview                           |volume_flow_databladeVALIDATION_Blade_21.vtu|
|                                   |                     (1024.48 MB/s)|
|Paraview surface                   |surface_flowdatabladeVALIDATION_Blade_21.vtu|
|                                   |                     (88.0969 MB/s)|
|SU2 ASCII restart                  |restart_flow_databladeVALIDATION_Blade_21.csv|
|                                   |                     (21.7345 MB/s)|
|CSV file                           |surface_flowdatabladeVALIDATION_Blade_21.csv|
|                                   |                     (21.0774 MB/s)|
+-----------------------------------------------------------------------+
+--------------------------------------+
|  Inner_Iter|   Time(sec)|    rms[Rho]|
+--------------------------------------+
|         410|  1.0196e-01|   -3.572103|
|         420|  1.0115e-01|   -3.479919|
|         430|  1.0014e-01|   -3.580463|
|         440|  9.9114e-02|   -3.625699|
|         450|  9.8277e-02|   -3.609167|
+-----------------------------------------------------------------------+
|        File Writing Summary       |              Filename             |
+-----------------------------------------------------------------------+
|SU2 binary restart                 |restart_flow_databladeVALIDATION_Blade_21.dat|
|                                   |                     (12587.7 MB/s)|
|Paraview                           |volume_flow_databladeVALIDATION_Blade_21.vtu|
|                                   |                      (972.22 MB/s)|
|Paraview surface                   |surface_flowdatabladeVALIDATION_Blade_21.vtu|
|                                   |                      (102.35 MB/s)|
|SU2 ASCII restart                  |restart_flow_databladeVALIDATION_Blade_21.csv|
|                                   |                     (21.6835 MB/s)|
|CSV file                           |surface_flowdatabladeVALIDATION_Blade_21.csv|
|                                   |                     (21.0263 MB/s)|
+-----------------------------------------------------------------------+
+--------------------------------------+
|  Inner_Iter|   Time(sec)|    rms[Rho]|
+--------------------------------------+
|         460|  1.0256e-01|   -3.590157|
|         470|  1.0161e-01|   -3.684631|
|         480|  1.0086e-01|   -3.661270|
|         490|  1.0011e-01|   -3.650954|
|         500|  9.9270e-02|   -3.741838|
+-----------------------------------------------------------------------+
|        File Writing Summary       |              Filename             |
+-----------------------------------------------------------------------+
|SU2 binary restart                 |restart_flow_databladeVALIDATION_Blade_21.dat|
|                                   |                     (14590.4 MB/s)|
|Paraview                           |volume_flow_databladeVALIDATION_Blade_21.vtu|
|                                   |                        (1136 MB/s)|
|Paraview surface                   |surface_flowdatabladeVALIDATION_Blade_21.vtu|
|                                   |                     (121.058 MB/s)|
|SU2 ASCII restart                  |restart_flow_databladeVALIDATION_Blade_21.csv|
|                                   |                     (21.9342 MB/s)|
|CSV file                           |surface_flowdatabladeVALIDATION_Blade_21.csv|
|                                   |                     (20.5468 MB/s)|
+-----------------------------------------------------------------------+
+--------------------------------------+
|  Inner_Iter|   Time(sec)|    rms[Rho]|
+--------------------------------------+
|         510|  1.0271e-01|   -3.761110|
|         520|  1.0209e-01|   -3.643169|
|         530|  1.0130e-01|   -3.731772|
|         540|  1.0047e-01|   -3.790487|
|         550|  9.9771e-02|   -3.795029|
+-----------------------------------------------------------------------+
|        File Writing Summary       |              Filename             |
+-----------------------------------------------------------------------+
|SU2 binary restart                 |restart_flow_databladeVALIDATION_Blade_21.dat|
|                                   |                     (12816.6 MB/s)|
|Paraview                           |volume_flow_databladeVALIDATION_Blade_21.vtu|
|                                   |                     (1085.71 MB/s)|
|Paraview surface                   |surface_flowdatabladeVALIDATION_Blade_21.vtu|
|                                   |                     (100.098 MB/s)|
|SU2 ASCII restart                  |restart_flow_databladeVALIDATION_Blade_21.csv|
|                                   |                     (21.9332 MB/s)|
|CSV file                           |surface_flowdatabladeVALIDATION_Blade_21.csv|
|                                   |                     (19.8173 MB/s)|
+-----------------------------------------------------------------------+
+--------------------------------------+
|  Inner_Iter|   Time(sec)|    rms[Rho]|
+--------------------------------------+
|         560|  1.0301e-01|   -3.764082|
|         570|  1.0223e-01|   -3.843115|
|         580|  1.0141e-01|   -3.869654|
|         590|  1.0072e-01|   -3.875464|
|         600|  1.0014e-01|   -3.893570|
+-----------------------------------------------------------------------+
|        File Writing Summary       |              Filename             |
+-----------------------------------------------------------------------+
|SU2 binary restart                 |restart_flow_databladeVALIDATION_Blade_21.dat|
|                                   |                     (11400.8 MB/s)|
|Paraview                           |volume_flow_databladeVALIDATION_Blade_21.vtu|
|                                   |                     (1047.86 MB/s)|
|Paraview surface                   |surface_flowdatabladeVALIDATION_Blade_21.vtu|
|                                   |                     (102.372 MB/s)|
|SU2 ASCII restart                  |restart_flow_databladeVALIDATION_Blade_21.csv|
|                                   |                     (22.2414 MB/s)|
|CSV file                           |surface_flowdatabladeVALIDATION_Blade_21.csv|
|                                   |                     (22.1425 MB/s)|
+-----------------------------------------------------------------------+
+--------------------------------------+
|  Inner_Iter|   Time(sec)|    rms[Rho]|
+--------------------------------------+
|         610|  1.0298e-01|   -3.941979|
|         620|  1.0228e-01|   -3.926436|
|         630|  1.0179e-01|   -3.879954|
|         640|  1.0128e-01|   -3.937301|
|         650|  1.0076e-01|   -3.966612|
+-----------------------------------------------------------------------+
|        File Writing Summary       |              Filename             |
+-----------------------------------------------------------------------+
|SU2 binary restart                 |restart_flow_databladeVALIDATION_Blade_21.dat|
|                                   |                     (12536.3 MB/s)|
|Paraview                           |volume_flow_databladeVALIDATION_Blade_21.vtu|
|                                   |                     (985.555 MB/s)|
|Paraview surface                   |surface_flowdatabladeVALIDATION_Blade_21.vtu|
|                                   |                     (101.297 MB/s)|
|SU2 ASCII restart                  |restart_flow_databladeVALIDATION_Blade_21.csv|
|                                   |                     (21.7295 MB/s)|
|CSV file                           |surface_flowdatabladeVALIDATION_Blade_21.csv|
|                                   |                      (19.523 MB/s)|
+-----------------------------------------------------------------------+
+--------------------------------------+
|  Inner_Iter|   Time(sec)|    rms[Rho]|
+--------------------------------------+
|         660|  1.0341e-01|   -4.040986|
|         670|  1.0278e-01|   -4.048586|
|         680|  1.0220e-01|   -4.036093|
|         690|  1.0162e-01|   -4.097028|
|         700|  1.0099e-01|   -4.104561|
+-----------------------------------------------------------------------+
|        File Writing Summary       |              Filename             |
+-----------------------------------------------------------------------+
|SU2 binary restart                 |restart_flow_databladeVALIDATION_Blade_21.dat|
|                                   |                     (11472.7 MB/s)|
|Paraview                           |volume_flow_databladeVALIDATION_Blade_21.vtu|
|                                   |                     (1077.19 MB/s)|
|Paraview surface                   |surface_flowdatabladeVALIDATION_Blade_21.vtu|
|                                   |                     (106.614 MB/s)|
|SU2 ASCII restart                  |restart_flow_databladeVALIDATION_Blade_21.csv|
|                                   |                     (21.4631 MB/s)|
|CSV file                           |surface_flowdatabladeVALIDATION_Blade_21.csv|
|                                   |                     (22.5932 MB/s)|
+-----------------------------------------------------------------------+
+--------------------------------------+
|  Inner_Iter|   Time(sec)|    rms[Rho]|
+--------------------------------------+
|         710|  1.0365e-01|   -4.034939|
|         720|  1.0306e-01|   -4.081579|
|         730|  1.0242e-01|   -4.105166|
|         740|  1.0185e-01|   -4.104994|
|         750|  1.0142e-01|   -4.064247|
+-----------------------------------------------------------------------+
|        File Writing Summary       |              Filename             |
+-----------------------------------------------------------------------+
|SU2 binary restart                 |restart_flow_databladeVALIDATION_Blade_21.dat|
|                                   |                     (11345.4 MB/s)|
|Paraview                           |volume_flow_databladeVALIDATION_Blade_21.vtu|
|                                   |                     (1053.31 MB/s)|
|Paraview surface                   |surface_flowdatabladeVALIDATION_Blade_21.vtu|
|                                   |                       (97.44 MB/s)|
|SU2 ASCII restart                  |restart_flow_databladeVALIDATION_Blade_21.csv|
|                                   |                      (21.936 MB/s)|
|CSV file                           |surface_flowdatabladeVALIDATION_Blade_21.csv|
|                                   |                      (21.983 MB/s)|
+-----------------------------------------------------------------------+
+--------------------------------------+
|  Inner_Iter|   Time(sec)|    rms[Rho]|
+--------------------------------------+
|         760|  1.0393e-01|   -4.116414|
|         770|  1.0351e-01|   -4.118515|
|         780|  1.0296e-01|   -4.191935|
|         790|  1.0236e-01|   -4.250986|
|         800|  1.0190e-01|   -4.254560|
+-----------------------------------------------------------------------+
|        File Writing Summary       |              Filename             |
+-----------------------------------------------------------------------+
|SU2 binary restart                 |restart_flow_databladeVALIDATION_Blade_21.dat|
|                                   |                     (15219.1 MB/s)|
|Paraview                           |volume_flow_databladeVALIDATION_Blade_21.vtu|
|                                   |                     (1081.11 MB/s)|
|Paraview surface                   |surface_flowdatabladeVALIDATION_Blade_21.vtu|
|                                   |                     (100.624 MB/s)|
|SU2 ASCII restart                  |restart_flow_databladeVALIDATION_Blade_21.csv|
|                                   |                     (21.7057 MB/s)|
|CSV file                           |surface_flowdatabladeVALIDATION_Blade_21.csv|
|                                   |                     (21.3223 MB/s)|
+-----------------------------------------------------------------------+
+--------------------------------------+
|  Inner_Iter|   Time(sec)|    rms[Rho]|
+--------------------------------------+
|         810|  1.0416e-01|   -4.267908|
|         820|  1.0356e-01|   -4.323027|
|         830|  1.0302e-01|   -4.339540|
|         840|  1.0261e-01|   -4.272529|
|         850|  1.0210e-01|   -4.349932|
+-----------------------------------------------------------------------+
|        File Writing Summary       |              Filename             |
+-----------------------------------------------------------------------+
|SU2 binary restart                 |restart_flow_databladeVALIDATION_Blade_21.dat|
|                                   |                     (12186.7 MB/s)|
|Paraview                           |volume_flow_databladeVALIDATION_Blade_21.vtu|
|                                   |                     (946.764 MB/s)|
|Paraview surface                   |surface_flowdatabladeVALIDATION_Blade_21.vtu|
|                                   |                     (94.0493 MB/s)|
|SU2 ASCII restart                  |restart_flow_databladeVALIDATION_Blade_21.csv|
|                                   |                     (21.6153 MB/s)|
|CSV file                           |surface_flowdatabladeVALIDATION_Blade_21.csv|
|                                   |                     (20.2517 MB/s)|
+-----------------------------------------------------------------------+
+--------------------------------------+
|  Inner_Iter|   Time(sec)|    rms[Rho]|
+--------------------------------------+
|         860|  1.0413e-01|   -4.364241|
|         870|  1.0365e-01|   -4.318925|
|         880|  1.0323e-01|   -4.299127|
|         890|  1.0270e-01|   -4.394981|
|         900|  1.0221e-01|   -4.411010|
+-----------------------------------------------------------------------+
|        File Writing Summary       |              Filename             |
+-----------------------------------------------------------------------+
|SU2 binary restart                 |restart_flow_databladeVALIDATION_Blade_21.dat|
|                                   |                       (11103 MB/s)|
|Paraview                           |volume_flow_databladeVALIDATION_Blade_21.vtu|
|                                   |                      (1014.6 MB/s)|
|Paraview surface                   |surface_flowdatabladeVALIDATION_Blade_21.vtu|
|                                   |                     (85.3855 MB/s)|
|SU2 ASCII restart                  |restart_flow_databladeVALIDATION_Blade_21.csv|
|                                   |                     (22.0405 MB/s)|
|CSV file                           |surface_flowdatabladeVALIDATION_Blade_21.csv|
|                                   |                     (21.3855 MB/s)|
+-----------------------------------------------------------------------+
+--------------------------------------+
|  Inner_Iter|   Time(sec)|    rms[Rho]|
+--------------------------------------+
|         910|  1.0420e-01|   -4.353386|
|         920|  1.0375e-01|   -4.420363|
|         930|  1.0348e-01|   -4.368444|
|         940|  1.0299e-01|   -4.470788|
|         950|  1.0253e-01|   -4.482644|
+-----------------------------------------------------------------------+
|        File Writing Summary       |              Filename             |
+-----------------------------------------------------------------------+
|SU2 binary restart                 |restart_flow_databladeVALIDATION_Blade_21.dat|
|                                   |                     (11685.2 MB/s)|
|Paraview                           |volume_flow_databladeVALIDATION_Blade_21.vtu|
|                                   |                     (981.768 MB/s)|
|Paraview surface                   |surface_flowdatabladeVALIDATION_Blade_21.vtu|
|                                   |                     (106.294 MB/s)|
|SU2 ASCII restart                  |restart_flow_databladeVALIDATION_Blade_21.csv|
|                                   |                     (21.6367 MB/s)|
|CSV file                           |surface_flowdatabladeVALIDATION_Blade_21.csv|
|                                   |                     (21.6301 MB/s)|
+-----------------------------------------------------------------------+
+--------------------------------------+
|  Inner_Iter|   Time(sec)|    rms[Rho]|
+--------------------------------------+
|         960|  1.0459e-01|   -4.450740|
|         970|  1.0420e-01|   -4.531712|
|         980|  1.0373e-01|   -4.589102|
|         990|  1.0332e-01|   -4.590176|
|        1000|  1.0292e-01|   -4.591916|
+-----------------------------------------------------------------------+
|        File Writing Summary       |              Filename             |
+-----------------------------------------------------------------------+
|SU2 binary restart                 |restart_flow_databladeVALIDATION_Blade_21.dat|
|                                   |                     (11538.7 MB/s)|
|Paraview                           |volume_flow_databladeVALIDATION_Blade_21.vtu|
|                                   |                     (1028.45 MB/s)|
|Paraview surface                   |surface_flowdatabladeVALIDATION_Blade_21.vtu|
|                                   |                     (102.476 MB/s)|
|SU2 ASCII restart                  |restart_flow_databladeVALIDATION_Blade_21.csv|
|                                   |                     (21.8478 MB/s)|
|CSV file                           |surface_flowdatabladeVALIDATION_Blade_21.csv|
|                                   |                     (21.6269 MB/s)|
+-----------------------------------------------------------------------+
+--------------------------------------+
|  Inner_Iter|   Time(sec)|    rms[Rho]|
+--------------------------------------+
|        1010|  1.0467e-01|   -4.643709|
|        1020|  1.0419e-01|   -4.639586|
|        1030|  1.0384e-01|   -4.562682|
|        1040|  1.0351e-01|   -4.554099|
|        1050|  1.0327e-01|   -4.576588|
+-----------------------------------------------------------------------+
|        File Writing Summary       |              Filename             |
+-----------------------------------------------------------------------+
|SU2 binary restart                 |restart_flow_databladeVALIDATION_Blade_21.dat|
|                                   |                     (12424.8 MB/s)|
|Paraview                           |volume_flow_databladeVALIDATION_Blade_21.vtu|
|                                   |                     (1018.61 MB/s)|
|Paraview surface                   |surface_flowdatabladeVALIDATION_Blade_21.vtu|
|                                   |                     (102.237 MB/s)|
|SU2 ASCII restart                  |restart_flow_databladeVALIDATION_Blade_21.csv|
|                                   |                     (22.3626 MB/s)|
|CSV file                           |surface_flowdatabladeVALIDATION_Blade_21.csv|
|                                   |                     (22.1484 MB/s)|
+-----------------------------------------------------------------------+
+--------------------------------------+
|  Inner_Iter|   Time(sec)|    rms[Rho]|
+--------------------------------------+
|        1060|  1.0501e-01|   -4.554246|
|        1070|  1.0457e-01|   -4.651769|
|        1080|  1.0413e-01|   -4.641207|
|        1090|  1.0377e-01|   -4.605058|
|        1100|  1.0341e-01|   -4.651507|
+-----------------------------------------------------------------------+
|        File Writing Summary       |              Filename             |
+-----------------------------------------------------------------------+
|SU2 binary restart                 |restart_flow_databladeVALIDATION_Blade_21.dat|
|                                   |                     (10159.3 MB/s)|
|Paraview                           |volume_flow_databladeVALIDATION_Blade_21.vtu|
|                                   |                     (1056.81 MB/s)|
|Paraview surface                   |surface_flowdatabladeVALIDATION_Blade_21.vtu|
|                                   |                     (89.9105 MB/s)|
|SU2 ASCII restart                  |restart_flow_databladeVALIDATION_Blade_21.csv|
|                                   |                     (22.0663 MB/s)|
|CSV file                           |surface_flowdatabladeVALIDATION_Blade_21.csv|
|                                   |                     (21.0081 MB/s)|
+-----------------------------------------------------------------------+
+--------------------------------------+
|  Inner_Iter|   Time(sec)|    rms[Rho]|
+--------------------------------------+
|        1110|  1.0493e-01|   -4.732035|
|        1120|  1.0452e-01|   -4.732555|
|        1130|  1.0423e-01|   -4.674284|
|        1140|  1.0381e-01|   -4.791042|
|        1150|  1.0341e-01|   -4.789262|
+-----------------------------------------------------------------------+
|        File Writing Summary       |              Filename             |
+-----------------------------------------------------------------------+
|SU2 binary restart                 |restart_flow_databladeVALIDATION_Blade_21.dat|
|                                   |                       (12410 MB/s)|
|Paraview                           |volume_flow_databladeVALIDATION_Blade_21.vtu|
|                                   |                     (1027.22 MB/s)|
|Paraview surface                   |surface_flowdatabladeVALIDATION_Blade_21.vtu|
|                                   |                     (97.5464 MB/s)|
|SU2 ASCII restart                  |restart_flow_databladeVALIDATION_Blade_21.csv|
|                                   |                     (21.4877 MB/s)|
|CSV file                           |surface_flowdatabladeVALIDATION_Blade_21.csv|
|                                   |                      (20.095 MB/s)|
+-----------------------------------------------------------------------+
+--------------------------------------+
|  Inner_Iter|   Time(sec)|    rms[Rho]|
+--------------------------------------+
|        1160|  1.0498e-01|   -4.758431|
|        1170|  1.0464e-01|   -4.775245|
|        1180|  1.0423e-01|   -4.822916|
|        1190|  1.0385e-01|   -4.815452|
|        1200|  1.0353e-01|   -4.770139|
+-----------------------------------------------------------------------+
|        File Writing Summary       |              Filename             |
+-----------------------------------------------------------------------+
|SU2 binary restart                 |restart_flow_databladeVALIDATION_Blade_21.dat|
|                                   |                     (10786.9 MB/s)|
|Paraview                           |volume_flow_databladeVALIDATION_Blade_21.vtu|
|                                   |                     (1029.34 MB/s)|
|Paraview surface                   |surface_flowdatabladeVALIDATION_Blade_21.vtu|
|                                   |                     (103.537 MB/s)|
|SU2 ASCII restart                  |restart_flow_databladeVALIDATION_Blade_21.csv|
|                                   |                     (21.6163 MB/s)|
|CSV file                           |surface_flowdatabladeVALIDATION_Blade_21.csv|
|                                   |                     (20.7329 MB/s)|
+-----------------------------------------------------------------------+
+--------------------------------------+
|  Inner_Iter|   Time(sec)|    rms[Rho]|
+--------------------------------------+
|        1210|  1.0501e-01|   -4.831317|
|        1220|  1.0460e-01|   -4.866585|
|        1230|  1.0424e-01|   -4.827296|
|        1240|  1.0393e-01|   -4.770236|
|        1250|  1.0358e-01|   -4.850778|
+-----------------------------------------------------------------------+
|        File Writing Summary       |              Filename             |
+-----------------------------------------------------------------------+
|SU2 binary restart                 |restart_flow_databladeVALIDATION_Blade_21.dat|
|                                   |                     (11946.6 MB/s)|
|Paraview                           |volume_flow_databladeVALIDATION_Blade_21.vtu|
|                                   |                     (1058.17 MB/s)|
|Paraview surface                   |surface_flowdatabladeVALIDATION_Blade_21.vtu|
|                                   |                     (104.096 MB/s)|
|SU2 ASCII restart                  |restart_flow_databladeVALIDATION_Blade_21.csv|
|                                   |                     (22.0472 MB/s)|
|CSV file                           |surface_flowdatabladeVALIDATION_Blade_21.csv|
|                                   |                     (22.1036 MB/s)|
+-----------------------------------------------------------------------+
+--------------------------------------+
|  Inner_Iter|   Time(sec)|    rms[Rho]|
+--------------------------------------+
|        1260|  1.0491e-01|   -4.872618|
|        1270|  1.0458e-01|   -4.865128|
|        1280|  1.0429e-01|   -4.860242|
|        1290|  1.0406e-01|   -4.869361|
|        1300|  1.0370e-01|   -4.923175|
+-----------------------------------------------------------------------+
|        File Writing Summary       |              Filename             |
+-----------------------------------------------------------------------+
|SU2 binary restart                 |restart_flow_databladeVALIDATION_Blade_21.dat|
|                                   |                     (12084.1 MB/s)|
|Paraview                           |volume_flow_databladeVALIDATION_Blade_21.vtu|
|                                   |                     (1074.37 MB/s)|
|Paraview surface                   |surface_flowdatabladeVALIDATION_Blade_21.vtu|
|                                   |                     (103.533 MB/s)|
|SU2 ASCII restart                  |restart_flow_databladeVALIDATION_Blade_21.csv|
|                                   |                     (21.5608 MB/s)|
|CSV file                           |surface_flowdatabladeVALIDATION_Blade_21.csv|
|                                   |                     (20.7813 MB/s)|
+-----------------------------------------------------------------------+
+--------------------------------------+
|  Inner_Iter|   Time(sec)|    rms[Rho]|
+--------------------------------------+
|        1310|  1.0503e-01|   -4.938799|
|        1320|  1.0472e-01|   -4.919013|
|        1330|  1.0442e-01|   -4.960949|
|        1340|  1.0405e-01|   -5.011011|
|        1350|  1.0372e-01|   -5.020942|
+-----------------------------------------------------------------------+
|        File Writing Summary       |              Filename             |
+-----------------------------------------------------------------------+
|SU2 binary restart                 |restart_flow_databladeVALIDATION_Blade_21.dat|
|                                   |                       (11366 MB/s)|
|Paraview                           |volume_flow_databladeVALIDATION_Blade_21.vtu|
|                                   |                      (1053.4 MB/s)|
|Paraview surface                   |surface_flowdatabladeVALIDATION_Blade_21.vtu|
|                                   |                      (105.61 MB/s)|
|SU2 ASCII restart                  |restart_flow_databladeVALIDATION_Blade_21.csv|
|                                   |                     (21.6826 MB/s)|
|CSV file                           |surface_flowdatabladeVALIDATION_Blade_21.csv|
|                                   |                     (20.4075 MB/s)|
+-----------------------------------------------------------------------+
+--------------------------------------+
|  Inner_Iter|   Time(sec)|    rms[Rho]|
+--------------------------------------+
|        1360|  1.0507e-01|   -4.967930|
|        1370|  1.0474e-01|   -5.025643|
|        1380|  1.0439e-01|   -5.037601|
|        1390|  1.0410e-01|   -5.016414|
|        1400|  1.0381e-01|   -5.012334|
+-----------------------------------------------------------------------+
|        File Writing Summary       |              Filename             |
+-----------------------------------------------------------------------+
|SU2 binary restart                 |restart_flow_databladeVALIDATION_Blade_21.dat|
|                                   |                      (9322.1 MB/s)|
|Paraview                           |volume_flow_databladeVALIDATION_Blade_21.vtu|
|                                   |                     (969.566 MB/s)|
|Paraview surface                   |surface_flowdatabladeVALIDATION_Blade_21.vtu|
|                                   |                     (88.0744 MB/s)|
|SU2 ASCII restart                  |restart_flow_databladeVALIDATION_Blade_21.csv|
|                                   |                     (21.9848 MB/s)|
|CSV file                           |surface_flowdatabladeVALIDATION_Blade_21.csv|
|                                   |                     (21.1335 MB/s)|
+-----------------------------------------------------------------------+
+--------------------------------------+
|  Inner_Iter|   Time(sec)|    rms[Rho]|
+--------------------------------------+
|        1410|  1.0501e-01|   -5.066174|
|        1420|  1.0468e-01|   -5.074695|
|        1430|  1.0440e-01|   -5.042292|
|        1440|  1.0413e-01|   -5.050934|
|        1450|  1.0379e-01|   -5.094489|
+-----------------------------------------------------------------------+
|        File Writing Summary       |              Filename             |
+-----------------------------------------------------------------------+
|SU2 binary restart                 |restart_flow_databladeVALIDATION_Blade_21.dat|
|                                   |                       (10426 MB/s)|
|Paraview                           |volume_flow_databladeVALIDATION_Blade_21.vtu|
|                                   |                     (688.911 MB/s)|
|Paraview surface                   |surface_flowdatabladeVALIDATION_Blade_21.vtu|
|                                   |                     (99.0656 MB/s)|
|SU2 ASCII restart                  |restart_flow_databladeVALIDATION_Blade_21.csv|
|                                   |                     (22.0119 MB/s)|
|CSV file                           |surface_flowdatabladeVALIDATION_Blade_21.csv|
|                                   |                     (18.1818 MB/s)|
+-----------------------------------------------------------------------+
+--------------------------------------+
|  Inner_Iter|   Time(sec)|    rms[Rho]|
+--------------------------------------+
|        1460|  1.0499e-01|   -5.101207|
|        1470|  1.0475e-01|   -5.046765|
|        1480|  1.0455e-01|   -5.062021|
|        1490|  1.0423e-01|   -5.120691|
|        1500|  1.0395e-01|   -5.129845|
+-----------------------------------------------------------------------+
|        File Writing Summary       |              Filename             |
+-----------------------------------------------------------------------+
|SU2 binary restart                 |restart_flow_databladeVALIDATION_Blade_21.dat|
|                                   |                     (11611.5 MB/s)|
|Paraview                           |volume_flow_databladeVALIDATION_Blade_21.vtu|
|                                   |                     (956.589 MB/s)|
|Paraview surface                   |surface_flowdatabladeVALIDATION_Blade_21.vtu|
|                                   |                     (101.926 MB/s)|
|SU2 ASCII restart                  |restart_flow_databladeVALIDATION_Blade_21.csv|
|                                   |                     (21.6189 MB/s)|
|CSV file                           |surface_flowdatabladeVALIDATION_Blade_21.csv|
|                                   |                     (21.5597 MB/s)|
+-----------------------------------------------------------------------+
+--------------------------------------+
|  Inner_Iter|   Time(sec)|    rms[Rho]|
+--------------------------------------+
|        1510|  1.0515e-01|   -5.091388|
|        1520|  1.0486e-01|   -5.166431|
|        1530|  1.0454e-01|   -5.230149|
|        1540|  1.0426e-01|   -5.228664|
|        1550|  1.0404e-01|   -5.159772|
+-----------------------------------------------------------------------+
|        File Writing Summary       |              Filename             |
+-----------------------------------------------------------------------+
|SU2 binary restart                 |restart_flow_databladeVALIDATION_Blade_21.dat|
|                                   |                       (10574 MB/s)|
|Paraview                           |volume_flow_databladeVALIDATION_Blade_21.vtu|
|                                   |                     (954.986 MB/s)|
|Paraview surface                   |surface_flowdatabladeVALIDATION_Blade_21.vtu|
|                                   |                     (117.414 MB/s)|
|SU2 ASCII restart                  |restart_flow_databladeVALIDATION_Blade_21.csv|
|                                   |                     (22.6675 MB/s)|
|CSV file                           |surface_flowdatabladeVALIDATION_Blade_21.csv|
|                                   |                     (19.1878 MB/s)|
+-----------------------------------------------------------------------+
+--------------------------------------+
|  Inner_Iter|   Time(sec)|    rms[Rho]|
+--------------------------------------+
|        1560|  1.0509e-01|   -5.226405|
|        1570|  1.0480e-01|   -5.211122|
|        1580|  1.0455e-01|   -5.166821|
|        1590|  1.0427e-01|   -5.257458|
|        1600|  1.0409e-01|   -5.244842|
+-----------------------------------------------------------------------+
|        File Writing Summary       |              Filename             |
+-----------------------------------------------------------------------+
|SU2 binary restart                 |restart_flow_databladeVALIDATION_Blade_21.dat|
|                                   |                     (12478.3 MB/s)|
|Paraview                           |volume_flow_databladeVALIDATION_Blade_21.vtu|
|                                   |                     (271.357 MB/s)|
|Paraview surface                   |surface_flowdatabladeVALIDATION_Blade_21.vtu|
|                                   |                     (56.4102 MB/s)|
|SU2 ASCII restart                  |restart_flow_databladeVALIDATION_Blade_21.csv|
|                                   |                     (21.4301 MB/s)|
|CSV file                           |surface_flowdatabladeVALIDATION_Blade_21.csv|
|                                   |                      (20.172 MB/s)|
+-----------------------------------------------------------------------+
+--------------------------------------+
|  Inner_Iter|   Time(sec)|    rms[Rho]|
+--------------------------------------+
|        1610|  1.0531e-01|   -5.236858|
|        1620|  1.0504e-01|   -5.291705|
|        1630|  1.0478e-01|   -5.260589|
|        1640|  1.0452e-01|   -5.334100|
|        1650|  1.0423e-01|   -5.383270|
+-----------------------------------------------------------------------+
|        File Writing Summary       |              Filename             |
+-----------------------------------------------------------------------+
|SU2 binary restart                 |restart_flow_databladeVALIDATION_Blade_21.dat|
|                                   |                     (11641.7 MB/s)|
|Paraview                           |volume_flow_databladeVALIDATION_Blade_21.vtu|
|                                   |                      (1038.1 MB/s)|
|Paraview surface                   |surface_flowdatabladeVALIDATION_Blade_21.vtu|
|                                   |                     (91.9088 MB/s)|
|SU2 ASCII restart                  |restart_flow_databladeVALIDATION_Blade_21.csv|
|                                   |                      (21.642 MB/s)|
|CSV file                           |surface_flowdatabladeVALIDATION_Blade_21.csv|
|                                   |                     (22.1656 MB/s)|
+-----------------------------------------------------------------------+
+--------------------------------------+
|  Inner_Iter|   Time(sec)|    rms[Rho]|
+--------------------------------------+
|        1660|  1.0529e-01|   -5.364549|
|        1670|  1.0504e-01|   -5.322240|
|        1680|  1.0477e-01|   -5.387050|
|        1690|  1.0450e-01|   -5.370728|
|        1700|  1.0425e-01|   -5.333256|
+-----------------------------------------------------------------------+
|        File Writing Summary       |              Filename             |
+-----------------------------------------------------------------------+
|SU2 binary restart                 |restart_flow_databladeVALIDATION_Blade_21.dat|
|                                   |                     (12109.3 MB/s)|
|Paraview                           |volume_flow_databladeVALIDATION_Blade_21.vtu|
|                                   |                     (1030.53 MB/s)|
|Paraview surface                   |surface_flowdatabladeVALIDATION_Blade_21.vtu|
|                                   |                     (96.8334 MB/s)|
|SU2 ASCII restart                  |restart_flow_databladeVALIDATION_Blade_21.csv|
|                                   |                     (21.4918 MB/s)|
|CSV file                           |surface_flowdatabladeVALIDATION_Blade_21.csv|
|                                   |                     (21.5596 MB/s)|
+-----------------------------------------------------------------------+
+--------------------------------------+
|  Inner_Iter|   Time(sec)|    rms[Rho]|
+--------------------------------------+
|        1710|  1.0530e-01|   -5.350907|
|        1720|  1.0501e-01|   -5.410355|
|        1730|  1.0483e-01|   -5.370270|
|        1740|  1.0466e-01|   -5.386052|
|        1750|  1.0449e-01|   -5.400888|
+-----------------------------------------------------------------------+
|        File Writing Summary       |              Filename             |
+-----------------------------------------------------------------------+
|SU2 binary restart                 |restart_flow_databladeVALIDATION_Blade_21.dat|
|                                   |                     (10740.2 MB/s)|
|Paraview                           |volume_flow_databladeVALIDATION_Blade_21.vtu|
|                                   |                     (1018.77 MB/s)|
|Paraview surface                   |surface_flowdatabladeVALIDATION_Blade_21.vtu|
|                                   |                     (63.5893 MB/s)|
|SU2 ASCII restart                  |restart_flow_databladeVALIDATION_Blade_21.csv|
|                                   |                     (21.7875 MB/s)|
|CSV file                           |surface_flowdatabladeVALIDATION_Blade_21.csv|
|                                   |                     (21.9216 MB/s)|
+-----------------------------------------------------------------------+
+--------------------------------------+
|  Inner_Iter|   Time(sec)|    rms[Rho]|
+--------------------------------------+
|        1760|  1.0558e-01|   -5.426395|
|        1770|  1.0541e-01|   -5.441206|
|        1780|  1.0524e-01|   -5.459276|
|        1790|  1.0507e-01|   -5.478104|
|        1800|  1.0491e-01|   -5.496423|
+-----------------------------------------------------------------------+
|        File Writing Summary       |              Filename             |
+-----------------------------------------------------------------------+
|SU2 binary restart                 |restart_flow_databladeVALIDATION_Blade_21.dat|
|                                   |                     (9814.49 MB/s)|
|Paraview                           |volume_flow_databladeVALIDATION_Blade_21.vtu|
|                                   |                     (1045.26 MB/s)|
|Paraview surface                   |surface_flowdatabladeVALIDATION_Blade_21.vtu|
|                                   |                      (57.888 MB/s)|
|SU2 ASCII restart                  |restart_flow_databladeVALIDATION_Blade_21.csv|
|                                   |                     (21.9634 MB/s)|
|CSV file                           |surface_flowdatabladeVALIDATION_Blade_21.csv|
|                                   |                     (20.8899 MB/s)|
+-----------------------------------------------------------------------+
+--------------------------------------+
|  Inner_Iter|   Time(sec)|    rms[Rho]|
+--------------------------------------+
|        1810|  1.0594e-01|   -5.519402|
|        1820|  1.0577e-01|   -5.546042|
|        1830|  1.0560e-01|   -5.569268|
|        1840|  1.0544e-01|   -5.588600|
|        1850|  1.0517e-01|   -5.672958|
+-----------------------------------------------------------------------+
|        File Writing Summary       |              Filename             |
+-----------------------------------------------------------------------+
|SU2 binary restart                 |restart_flow_databladeVALIDATION_Blade_21.dat|
|                                   |                     (11690.4 MB/s)|
|Paraview                           |volume_flow_databladeVALIDATION_Blade_21.vtu|
|                                   |                     (1061.31 MB/s)|
|Paraview surface                   |surface_flowdatabladeVALIDATION_Blade_21.vtu|
|                                   |                     (99.9859 MB/s)|
|SU2 ASCII restart                  |restart_flow_databladeVALIDATION_Blade_21.csv|
|                                   |                     (22.0993 MB/s)|
|CSV file                           |surface_flowdatabladeVALIDATION_Blade_21.csv|
|                                   |                     (20.8344 MB/s)|
+-----------------------------------------------------------------------+
+--------------------------------------+
|  Inner_Iter|   Time(sec)|    rms[Rho]|
+--------------------------------------+
|        1860|  1.0607e-01|   -5.678465|
|        1870|  1.0585e-01|   -5.640830|
|        1880|  1.0563e-01|   -5.662562|
|        1890|  1.0535e-01|   -5.720518|
|        1900|  1.0511e-01|   -5.714454|
+-----------------------------------------------------------------------+
|        File Writing Summary       |              Filename             |
+-----------------------------------------------------------------------+
|SU2 binary restart                 |restart_flow_databladeVALIDATION_Blade_21.dat|
|                                   |                     (12393.3 MB/s)|
|Paraview                           |volume_flow_databladeVALIDATION_Blade_21.vtu|
|                                   |                      (1014.3 MB/s)|
|Paraview surface                   |surface_flowdatabladeVALIDATION_Blade_21.vtu|
|                                   |                     (89.7732 MB/s)|
|SU2 ASCII restart                  |restart_flow_databladeVALIDATION_Blade_21.csv|
|                                   |                     (21.4656 MB/s)|
|CSV file                           |surface_flowdatabladeVALIDATION_Blade_21.csv|
|                                   |                     (21.9925 MB/s)|
+-----------------------------------------------------------------------+
+--------------------------------------+
|  Inner_Iter|   Time(sec)|    rms[Rho]|
+--------------------------------------+
|        1910|  1.0608e-01|   -5.621251|
|        1920|  1.0584e-01|   -5.715584|
|        1930|  1.0558e-01|   -5.727916|
|        1940|  1.0536e-01|   -5.692572|
|        1950|  1.0516e-01|   -5.671094|
+-----------------------------------------------------------------------+
|        File Writing Summary       |              Filename             |
+-----------------------------------------------------------------------+
|SU2 binary restart                 |restart_flow_databladeVALIDATION_Blade_21.dat|
|                                   |                     (10539.8 MB/s)|
|Paraview                           |volume_flow_databladeVALIDATION_Blade_21.vtu|
|                                   |                     (804.777 MB/s)|
|Paraview surface                   |surface_flowdatabladeVALIDATION_Blade_21.vtu|
|                                   |                     (98.8746 MB/s)|
|SU2 ASCII restart                  |restart_flow_databladeVALIDATION_Blade_21.csv|
|                                   |                     (21.7286 MB/s)|
|CSV file                           |surface_flowdatabladeVALIDATION_Blade_21.csv|
|                                   |                     (22.1222 MB/s)|
+-----------------------------------------------------------------------+
+--------------------------------------+
|  Inner_Iter|   Time(sec)|    rms[Rho]|
+--------------------------------------+
|        1960|  1.0612e-01|   -5.695389|
|        1970|  1.0597e-01|   -5.702745|
|        1980|  1.0573e-01|   -5.784406|
|        1990|  1.0550e-01|   -5.769283|
|        2000|  1.0531e-01|   -5.761344|
+-----------------------------------------------------------------------+
|        File Writing Summary       |              Filename             |
+-----------------------------------------------------------------------+
|SU2 binary restart                 |restart_flow_databladeVALIDATION_Blade_21.dat|
|                                   |                       (10864 MB/s)|
|Paraview                           |volume_flow_databladeVALIDATION_Blade_21.vtu|
|                                   |                     (1110.91 MB/s)|
|Paraview surface                   |surface_flowdatabladeVALIDATION_Blade_21.vtu|
|                                   |                     (103.218 MB/s)|
|SU2 ASCII restart                  |restart_flow_databladeVALIDATION_Blade_21.csv|
|                                   |                     (21.7659 MB/s)|
|CSV file                           |surface_flowdatabladeVALIDATION_Blade_21.csv|
|                                   |                     (20.4856 MB/s)|
+-----------------------------------------------------------------------+
+--------------------------------------+
|  Inner_Iter|   Time(sec)|    rms[Rho]|
+--------------------------------------+
|        2010|  1.0615e-01|   -5.836700|
|        2020|  1.0591e-01|   -5.847611|
|        2030|  1.0570e-01|   -5.808415|
|        2040|  1.0551e-01|   -5.821552|
|        2050|  1.0529e-01|   -5.862132|
+-----------------------------------------------------------------------+
|        File Writing Summary       |              Filename             |
+-----------------------------------------------------------------------+
|SU2 binary restart                 |restart_flow_databladeVALIDATION_Blade_21.dat|
|                                   |                     (11887.6 MB/s)|
|Paraview                           |volume_flow_databladeVALIDATION_Blade_21.vtu|
|                                   |                     (1013.79 MB/s)|
|Paraview surface                   |surface_flowdatabladeVALIDATION_Blade_21.vtu|
|                                   |                     (101.356 MB/s)|
|SU2 ASCII restart                  |restart_flow_databladeVALIDATION_Blade_21.csv|
|                                   |                     (21.1027 MB/s)|
|CSV file                           |surface_flowdatabladeVALIDATION_Blade_21.csv|
|                                   |                     (20.8149 MB/s)|
+-----------------------------------------------------------------------+
+--------------------------------------+
|  Inner_Iter|   Time(sec)|    rms[Rho]|
+--------------------------------------+
|        2060|  1.0617e-01|   -5.833907|
|        2070|  1.0599e-01|   -5.811348|
|        2080|  1.0575e-01|   -5.874264|
|        2090|  1.0560e-01|   -5.824136|
|        2100|  1.0546e-01|   -5.833443|
+-----------------------------------------------------------------------+
|        File Writing Summary       |              Filename             |
+-----------------------------------------------------------------------+
|SU2 binary restart                 |restart_flow_databladeVALIDATION_Blade_21.dat|
|                                   |                     (9139.13 MB/s)|
|Paraview                           |volume_flow_databladeVALIDATION_Blade_21.vtu|
|                                   |                     (963.927 MB/s)|
|Paraview surface                   |surface_flowdatabladeVALIDATION_Blade_21.vtu|
|                                   |                     (136.107 MB/s)|
|SU2 ASCII restart                  |restart_flow_databladeVALIDATION_Blade_21.csv|
|                                   |                     (21.8817 MB/s)|
|CSV file                           |surface_flowdatabladeVALIDATION_Blade_21.csv|
|                                   |                     (22.0843 MB/s)|
+-----------------------------------------------------------------------+
+--------------------------------------+
|  Inner_Iter|   Time(sec)|    rms[Rho]|
+--------------------------------------+
|        2110|  1.0634e-01|   -5.862220|
|        2120|  1.0619e-01|   -5.887836|
|        2130|  1.0605e-01|   -5.905454|
|        2140|  1.0592e-01|   -5.928705|
|        2150|  1.0578e-01|   -5.953237|
+-----------------------------------------------------------------------+
|        File Writing Summary       |              Filename             |
+-----------------------------------------------------------------------+
|SU2 binary restart                 |restart_flow_databladeVALIDATION_Blade_21.dat|
|                                   |                     (12702.2 MB/s)|
|Paraview                           |volume_flow_databladeVALIDATION_Blade_21.vtu|
|                                   |                     (912.191 MB/s)|
|Paraview surface                   |surface_flowdatabladeVALIDATION_Blade_21.vtu|
|                                   |                     (99.9527 MB/s)|
|SU2 ASCII restart                  |restart_flow_databladeVALIDATION_Blade_21.csv|
|                                   |                     (21.5791 MB/s)|
|CSV file                           |surface_flowdatabladeVALIDATION_Blade_21.csv|
|                                   |                     (18.9821 MB/s)|
+-----------------------------------------------------------------------+
+--------------------------------------+
|  Inner_Iter|   Time(sec)|    rms[Rho]|
+--------------------------------------+
|        2160|  1.0667e-01|   -5.977303|
|        2170|  1.0652e-01|   -6.007723|
|        2180|  1.0635e-01|   -6.046786|
|        2190|  1.0616e-01|   -6.055315|
|        2200|  1.0593e-01|   -6.096103|
+-----------------------------------------------------------------------+
|        File Writing Summary       |              Filename             |
+-----------------------------------------------------------------------+
|SU2 binary restart                 |restart_flow_databladeVALIDATION_Blade_21.dat|
|                                   |                     (14808.6 MB/s)|
|Paraview                           |volume_flow_databladeVALIDATION_Blade_21.vtu|
|                                   |                     (1108.99 MB/s)|
|Paraview surface                   |surface_flowdatabladeVALIDATION_Blade_21.vtu|
|                                   |                     (99.4538 MB/s)|
|SU2 ASCII restart                  |restart_flow_databladeVALIDATION_Blade_21.csv|
|                                   |                     (22.0795 MB/s)|
|CSV file                           |surface_flowdatabladeVALIDATION_Blade_21.csv|
|                                   |                     (21.5892 MB/s)|
+-----------------------------------------------------------------------+
+--------------------------------------+
|  Inner_Iter|   Time(sec)|    rms[Rho]|
+--------------------------------------+
|        2210|  1.0670e-01|   -6.109298|
|        2220|  1.0655e-01|   -6.077230|
|        2230|  1.0636e-01|   -6.113257|
|        2240|  1.0617e-01|   -6.085502|
|        2250|  1.0595e-01|   -6.121831|
+-----------------------------------------------------------------------+
|        File Writing Summary       |              Filename             |
+-----------------------------------------------------------------------+
|SU2 binary restart                 |restart_flow_databladeVALIDATION_Blade_21.dat|
|                                   |                     (6053.27 MB/s)|
|Paraview                           |volume_flow_databladeVALIDATION_Blade_21.vtu|
|                                   |                     (1036.11 MB/s)|
|Paraview surface                   |surface_flowdatabladeVALIDATION_Blade_21.vtu|
|                                   |                     (134.587 MB/s)|
|SU2 ASCII restart                  |restart_flow_databladeVALIDATION_Blade_21.csv|
|                                   |                     (21.4589 MB/s)|
|CSV file                           |surface_flowdatabladeVALIDATION_Blade_21.csv|
|                                   |                     (20.5824 MB/s)|
+-----------------------------------------------------------------------+
+--------------------------------------+
|  Inner_Iter|   Time(sec)|    rms[Rho]|
+--------------------------------------+
|        2260|  1.0672e-01|   -6.138156|
|        2270|  1.0657e-01|   -6.131719|
|        2280|  1.0644e-01|   -6.155529|
|        2290|  1.0631e-01|   -6.164189|
|        2300|  1.0618e-01|   -6.201125|
+-----------------------------------------------------------------------+
|        File Writing Summary       |              Filename             |
+-----------------------------------------------------------------------+
|SU2 binary restart                 |restart_flow_databladeVALIDATION_Blade_21.dat|
|                                   |                       (11450 MB/s)|
|Paraview                           |volume_flow_databladeVALIDATION_Blade_21.vtu|
|                                   |                      (1077.1 MB/s)|
|Paraview surface                   |surface_flowdatabladeVALIDATION_Blade_21.vtu|
|                                   |                     (98.2621 MB/s)|
|SU2 ASCII restart                  |restart_flow_databladeVALIDATION_Blade_21.csv|
|                                   |                     (21.4258 MB/s)|
|CSV file                           |surface_flowdatabladeVALIDATION_Blade_21.csv|
|                                   |                     (19.8848 MB/s)|
+-----------------------------------------------------------------------+
+--------------------------------------+
|  Inner_Iter|   Time(sec)|    rms[Rho]|
+--------------------------------------+
|        2310|  1.0701e-01|   -6.245316|
|        2320|  1.0690e-01|   -6.262937|
|        2330|  1.0678e-01|   -6.261643|
|        2340|  1.0665e-01|   -6.271281|
|        2350|  1.0652e-01|   -6.299649|
+-----------------------------------------------------------------------+
|        File Writing Summary       |              Filename             |
+-----------------------------------------------------------------------+
|SU2 binary restart                 |restart_flow_databladeVALIDATION_Blade_21.dat|
|                                   |                     (12591.8 MB/s)|
|Paraview                           |volume_flow_databladeVALIDATION_Blade_21.vtu|
[...]
|        File Writing Summary       |              Filename             |
+-----------------------------------------------------------------------+
|SU2 binary restart                 |restart_flow_databladeVALIDATION_Blade_21.dat|
|                                   |                     (11550.6 MB/s)|
|Paraview                           |volume_flow_databladeVALIDATION_Blade_21.vtu|
|                                   |                      (1067.5 MB/s)|
|Paraview surface                   |surface_flowdatabladeVALIDATION_Blade_21.vtu|
|                                   |                     (98.9639 MB/s)|
|SU2 ASCII restart                  |restart_flow_databladeVALIDATION_Blade_21.csv|
|                                   |                     (21.8501 MB/s)|
|CSV file                           |surface_flowdatabladeVALIDATION_Blade_21.csv|
|                                   |                     (21.2454 MB/s)|
+-----------------------------------------------------------------------+
+--------------------------------------+
|  Inner_Iter|   Time(sec)|    rms[Rho]|
+--------------------------------------+
|        2960|  1.0756e-01|   -6.860535|
|        2970|  1.0742e-01|   -6.859148|
|        2980|  1.0725e-01|   -6.881601|
|        2990|  1.0708e-01|   -6.889569|
|        3000|  1.0693e-01|   -6.887163|
+-----------------------------------------------------------------------+
|        File Writing Summary       |              Filename             |
+-----------------------------------------------------------------------+
|SU2 binary restart                 |restart_flow_databladeVALIDATION_Blade_21.dat|
|                                   |                     (12333.7 MB/s)|
|Paraview                           |volume_flow_databladeVALIDATION_Blade_21.vtu|
|                                   |                     (987.582 MB/s)|
|Paraview surface                   |surface_flowdatabladeVALIDATION_Blade_21.vtu|
|                                   |                     (103.907 MB/s)|
|SU2 ASCII restart                  |restart_flow_databladeVALIDATION_Blade_21.csv|
|                                   |                     (21.5653 MB/s)|
|CSV file                           |surface_flowdatabladeVALIDATION_Blade_21.csv|
|                                   |                      (22.097 MB/s)|
+-----------------------------------------------------------------------+
+--------------------------------------+
|  Inner_Iter|   Time(sec)|    rms[Rho]|
+--------------------------------------+
|        3010|  1.0752e-01|   -6.896556|
|        3020|  1.0737e-01|   -6.906924|
|        3030|  1.0722e-01|   -6.901323|
|        3040|  1.0708e-01|   -6.897357|
|        3050|  1.0691e-01|   -6.911492|
+-----------------------------------------------------------------------+
|        File Writing Summary       |              Filename             |
+-----------------------------------------------------------------------+
|SU2 binary restart                 |restart_flow_databladeVALIDATION_Blade_21.dat|
|                                   |                     (11698.3 MB/s)|
|Paraview                           |volume_flow_databladeVALIDATION_Blade_21.vtu|
|                                   |                     (1008.23 MB/s)|
|Paraview surface                   |surface_flowdatabladeVALIDATION_Blade_21.vtu|
|                                   |                     (105.108 MB/s)|
|SU2 ASCII restart                  |restart_flow_databladeVALIDATION_Blade_21.csv|
|                                   |                     (21.9013 MB/s)|
|CSV file                           |surface_flowdatabladeVALIDATION_Blade_21.csv|
|                                   |                     (21.5387 MB/s)|
+-----------------------------------------------------------------------+
+--------------------------------------+
|  Inner_Iter|   Time(sec)|    rms[Rho]|
+--------------------------------------+
|        3060|  1.0751e-01|   -6.885897|
|        3070|  1.0740e-01|   -6.871117|
|        3080|  1.0730e-01|   -6.875775|
|        3090|  1.0719e-01|   -6.898750|
|        3100|  1.0703e-01|   -6.925723|
+-----------------------------------------------------------------------+
|        File Writing Summary       |              Filename             |
+-----------------------------------------------------------------------+
|SU2 binary restart                 |restart_flow_databladeVALIDATION_Blade_21.dat|
|                                   |                     (9789.31 MB/s)|
|Paraview                           |volume_flow_databladeVALIDATION_Blade_21.vtu|
|                                   |                        (1070 MB/s)|
|Paraview surface                   |surface_flowdatabladeVALIDATION_Blade_21.vtu|
|                                   |                      (102.59 MB/s)|
|SU2 ASCII restart                  |restart_flow_databladeVALIDATION_Blade_21.csv|
|                                   |                     (21.3537 MB/s)|
|CSV file                           |surface_flowdatabladeVALIDATION_Blade_21.csv|
|                                   |                     (21.4787 MB/s)|
+-----------------------------------------------------------------------+
+--------------------------------------+
|  Inner_Iter|   Time(sec)|    rms[Rho]|
+--------------------------------------+
|        3110|  1.0761e-01|   -6.926516|
|        3120|  1.0746e-01|   -6.939741|
|        3130|  1.0731e-01|   -6.944524|
|        3140|  1.0717e-01|   -6.938895|
|        3150|  1.0704e-01|   -6.932657|
+-----------------------------------------------------------------------+
|        File Writing Summary       |              Filename             |
+-----------------------------------------------------------------------+
|SU2 binary restart                 |restart_flow_databladeVALIDATION_Blade_21.dat|
|                                   |                     (12454.4 MB/s)|
|Paraview                           |volume_flow_databladeVALIDATION_Blade_21.vtu|
|                                   |                     (1005.48 MB/s)|
|Paraview surface                   |surface_flowdatabladeVALIDATION_Blade_21.vtu|
|                                   |                     (131.734 MB/s)|
|SU2 ASCII restart                  |restart_flow_databladeVALIDATION_Blade_21.csv|
|                                   |                     (21.5288 MB/s)|
|CSV file                           |surface_flowdatabladeVALIDATION_Blade_21.csv|
|                                   |                     (21.0784 MB/s)|
+-----------------------------------------------------------------------+
+--------------------------------------+
|  Inner_Iter|   Time(sec)|    rms[Rho]|
+--------------------------------------+
|        3160|  1.0757e-01|   -6.938505|
|        3170|  1.0741e-01|   -6.932848|
|        3180|  1.0728e-01|   -6.919228|
|        3190|  1.0714e-01|   -6.919955|
|        3200|  1.0701e-01|   -6.925188|
+-----------------------------------------------------------------------+
|        File Writing Summary       |              Filename             |
+-----------------------------------------------------------------------+
|SU2 binary restart                 |restart_flow_databladeVALIDATION_Blade_21.dat|
|                                   |                     (3918.86 MB/s)|
|Paraview                           |volume_flow_databladeVALIDATION_Blade_21.vtu|
|                                   |                     (380.405 MB/s)|
|Paraview surface                   |surface_flowdatabladeVALIDATION_Blade_21.vtu|
|                                   |                     (4.18236 MB/s)|
|SU2 ASCII restart                  |restart_flow_databladeVALIDATION_Blade_21.csv|
|                                   |                     (21.3852 MB/s)|
|CSV file                           |surface_flowdatabladeVALIDATION_Blade_21.csv|
|                                   |                     (15.7167 MB/s)|
+-----------------------------------------------------------------------+
+--------------------------------------+
|  Inner_Iter|   Time(sec)|    rms[Rho]|
+--------------------------------------+
|        3210|  1.0759e-01|   -6.924881|
|        3220|  1.0746e-01|   -6.924185|
|        3230|  1.0732e-01|   -6.940291|
|        3240|  1.0723e-01|   -6.940037|
|        3250|  1.0709e-01|   -6.958074|
+-----------------------------------------------------------------------+
|        File Writing Summary       |              Filename             |
+-----------------------------------------------------------------------+
|SU2 binary restart                 |restart_flow_databladeVALIDATION_Blade_21.dat|
|                                   |                     (12400.2 MB/s)|
|Paraview                           |volume_flow_databladeVALIDATION_Blade_21.vtu|
|                                   |                     (967.972 MB/s)|
|Paraview surface                   |surface_flowdatabladeVALIDATION_Blade_21.vtu|
|                                   |                     (93.4478 MB/s)|
|SU2 ASCII restart                  |restart_flow_databladeVALIDATION_Blade_21.csv|
|                                   |                     (20.5705 MB/s)|
|CSV file                           |surface_flowdatabladeVALIDATION_Blade_21.csv|
|                                   |                     (18.7308 MB/s)|
+-----------------------------------------------------------------------+
+--------------------------------------+
|  Inner_Iter|   Time(sec)|    rms[Rho]|
+--------------------------------------+
|        3260|  1.0766e-01|   -6.958401|
|        3270|  1.0752e-01|   -6.951247|
|        3280|  1.0737e-01|   -6.964773|
|        3290|  1.0728e-01|   -6.945505|
|        3300|  1.0718e-01|   -6.935027|
+-----------------------------------------------------------------------+
|        File Writing Summary       |              Filename             |
+-----------------------------------------------------------------------+
|SU2 binary restart                 |restart_flow_databladeVALIDATION_Blade_21.dat|
|                                   |                     (11900.3 MB/s)|
|Paraview                           |volume_flow_databladeVALIDATION_Blade_21.vtu|
|                                   |                     (1026.47 MB/s)|
|Paraview surface                   |surface_flowdatabladeVALIDATION_Blade_21.vtu|
|                                   |                     (116.529 MB/s)|
|SU2 ASCII restart                  |restart_flow_databladeVALIDATION_Blade_21.csv|
|                                   |                     (21.4469 MB/s)|
|CSV file                           |surface_flowdatabladeVALIDATION_Blade_21.csv|
|                                   |                      (21.001 MB/s)|
+-----------------------------------------------------------------------+
+--------------------------------------+
|  Inner_Iter|   Time(sec)|    rms[Rho]|
+--------------------------------------+
|        3310|  1.0775e-01|   -6.935445|
|        3320|  1.0765e-01|   -6.947878|
|        3330|  1.0756e-01|   -6.961334|
|        3340|  1.0746e-01|   -6.967566|
|        3350|  1.0737e-01|   -6.967230|
+-----------------------------------------------------------------------+
|        File Writing Summary       |              Filename             |
+-----------------------------------------------------------------------+
|SU2 binary restart                 |restart_flow_databladeVALIDATION_Blade_21.dat|
|                                   |                      (18.614 MB/s)|
|Paraview                           |volume_flow_databladeVALIDATION_Blade_21.vtu|
|                                   |                     (1003.09 MB/s)|
|Paraview surface                   |surface_flowdatabladeVALIDATION_Blade_21.vtu|
|                                   |                     (121.076 MB/s)|
|SU2 ASCII restart                  |restart_flow_databladeVALIDATION_Blade_21.csv|
|                                   |                     (21.5074 MB/s)|
|CSV file                           |surface_flowdatabladeVALIDATION_Blade_21.csv|
|                                   |                     (20.0656 MB/s)|
+-----------------------------------------------------------------------+
+--------------------------------------+
|  Inner_Iter|   Time(sec)|    rms[Rho]|
+--------------------------------------+
|        3360|  1.0818e-01|   -6.976844|
|        3370|  1.0804e-01|   -6.972710|
|        3380|  1.0792e-01|   -6.969471|
|        3390|  1.0776e-01|   -6.974257|
|        3400|  1.0762e-01|   -6.974507|
+-----------------------------------------------------------------------+
|        File Writing Summary       |              Filename             |
+-----------------------------------------------------------------------+
|SU2 binary restart                 |restart_flow_databladeVALIDATION_Blade_21.dat|
|                                   |                       (14368 MB/s)|
|Paraview                           |volume_flow_databladeVALIDATION_Blade_21.vtu|
|                                   |                     (994.727 MB/s)|
|Paraview surface                   |surface_flowdatabladeVALIDATION_Blade_21.vtu|
|                                   |                     (111.873 MB/s)|
|SU2 ASCII restart                  |restart_flow_databladeVALIDATION_Blade_21.csv|
|                                   |                       (21.99 MB/s)|
|CSV file                           |surface_flowdatabladeVALIDATION_Blade_21.csv|
|                                   |                     (20.5757 MB/s)|
+-----------------------------------------------------------------------+
+--------------------------------------+
|  Inner_Iter|   Time(sec)|    rms[Rho]|
+--------------------------------------+
|        3410|  1.0812e-01|   -6.972960|
|        3420|  1.0800e-01|   -6.977618|
|        3430|  1.0791e-01|   -6.978874|
|        3440|  1.0783e-01|   -6.983433|
|        3450|  1.0773e-01|   -6.986361|
+-----------------------------------------------------------------------+
|        File Writing Summary       |              Filename             |
+-----------------------------------------------------------------------+
|SU2 binary restart                 |restart_flow_databladeVALIDATION_Blade_21.dat|
|                                   |                     (11110.1 MB/s)|
|Paraview                           |volume_flow_databladeVALIDATION_Blade_21.vtu|
|                                   |                     (1050.29 MB/s)|
|Paraview surface                   |surface_flowdatabladeVALIDATION_Blade_21.vtu|
|                                   |                     (140.813 MB/s)|
|SU2 ASCII restart                  |restart_flow_databladeVALIDATION_Blade_21.csv|
|                                   |                     (21.6795 MB/s)|
|CSV file                           |surface_flowdatabladeVALIDATION_Blade_21.csv|
|                                   |                     (21.8044 MB/s)|
+-----------------------------------------------------------------------+
+--------------------------------------+
|  Inner_Iter|   Time(sec)|    rms[Rho]|
+--------------------------------------+
|        3460|  1.0827e-01|   -6.985225|
|        3470|  1.0812e-01|   -6.992986|
|        3480|  1.0798e-01|   -6.991446|
|        3490|  1.0786e-01|   -6.988499|
|        3500|  1.0772e-01|   -6.994413|
+-----------------------------------------------------------------------+
|        File Writing Summary       |              Filename             |
+-----------------------------------------------------------------------+
|SU2 binary restart                 |restart_flow_databladeVALIDATION_Blade_21.dat|
|                                   |                     (12691.9 MB/s)|
|Paraview                           |volume_flow_databladeVALIDATION_Blade_21.vtu|
|                                   |                     (1093.15 MB/s)|
|Paraview surface                   |surface_flowdatabladeVALIDATION_Blade_21.vtu|
|                                   |                     (101.965 MB/s)|
|SU2 ASCII restart                  |restart_flow_databladeVALIDATION_Blade_21.csv|
|                                   |                     (21.5644 MB/s)|
|CSV file                           |surface_flowdatabladeVALIDATION_Blade_21.csv|
|                                   |                     (21.4501 MB/s)|
+-----------------------------------------------------------------------+
+--------------------------------------+
|  Inner_Iter|   Time(sec)|    rms[Rho]|
+--------------------------------------+
|        3510|  1.0820e-01|   -6.996885|
|        3520|  1.0807e-01|   -6.997868|
|        3523|  1.0802e-01|   -7.000590|

----------------------------- Solver Exit -------------------------------
All convergence criteria satisfied.
+-----------------------------------------------------------------------+
|      Convergence Field     |     Value    |   Criterion  |  Converged |
+-----------------------------------------------------------------------+
|                    rms[Rho]|      -7.00059|          < -7|         Yes|
+-----------------------------------------------------------------------+
-------------------------------------------------------------------------
+-----------------------------------------------------------------------+
|        File Writing Summary       |              Filename             |
+-----------------------------------------------------------------------+
|SU2 binary restart                 |restart_flow_databladeVALIDATION_Blade_21.dat|
|                                   |                     (9268.53 MB/s)|
|Paraview                           |volume_flow_databladeVALIDATION_Blade_21.vtu|
|                                   |                     (1015.74 MB/s)|
|Paraview surface                   |surface_flowdatabladeVALIDATION_Blade_21.vtu|
|                                   |                     (88.5662 MB/s)|
|SU2 ASCII restart                  |restart_flow_databladeVALIDATION_Blade_21.csv|
|                                   |                     (21.9944 MB/s)|
|CSV file                           |surface_flowdatabladeVALIDATION_Blade_21.csv|
|                                   |                     (19.2573 MB/s)|
+-----------------------------------------------------------------------+

--------------------------- Finalizing Solver ---------------------------
Deleted CNumerics container.
Deleted CIntegration container.
Deleted CSolver container.
Deleted CIteration container.
Deleted CInterface container.
Deleted CGeometry container.
Deleted CFreeFormDefBox class.
Deleted CSurfaceMovement class.
Deleted CVolumetricMovement class.
Deleted CConfig container.
Deleted nInst container.
Deleted COutput class.
-------------------------------------------------------------------------


-------------------------- Performance Summary --------------------------
Simulation totals:
   Wall-clock time (hrs):    0.106471 |            Core-hrs:     1.27766
                   Cores:          12 |          DOFs/point:           5
             Points/core:     4934.33 |   Ghost points/core:       141.5
 Ghost/Owned Point Ratio:   0.0286766 | 

Preprocessing phase:
       Preproc. Time (s):    0.448299 |   Preproc. Time (%):    0.116959

Compute phase:
        Compute Time (s):     380.672 |    Compute Time (%):     99.3152
         Iteration count:        3524 |         Avg. s/iter:    0.108023
     Core-s/iter/Mpoints:     21.2818 |           Mpoints/s:    0.563863

Output phase:
         Output Time (s):     2.17648 |     Output Time (%):    0.567832
            Output count:           1 |       Avg. s/output:     2.17648
 Restart Aggr. BW (MB/s):      798505 |           MB/s/core:     66542.1
-------------------------------------------------------------------------


------------------------- Exit Success (SU2_CFD) ------------------------

