
-------------------------------------------------------------------------
|    ___ _   _ ___                                                      |
|   / __| | | |_  )   Release 8.0.1 "Harrier"                           |
|   \__ \ |_| |/ /                                                      |
|   |___/\___//___|   Suite (Computational Fluid Dynamics Code)         |
|                                                                       |
-------------------------------------------------------------------------
| SU2 Project Website: https://su2code.github.io                        |
|                                                                       |
| The SU2 Project is maintained by the SU2 Foundation                   |
| (http://su2foundation.org)                                            |
-------------------------------------------------------------------------
| Copyright 2012-2024, SU2 Contributors                                 |
|                                                                       |
| SU2 is free software; you can redistribute it and/or                  |
| modify it under the terms of the GNU Lesser General Public            |
| License as published by the Free Software Foundation; either          |
| version 2.1 of the License, or (at your option) any later version.    |
|                                                                       |
| SU2 is distributed in the hope that it will be useful,                |
| but WITHOUT ANY WARRANTY; without even the implied warranty of        |
| MERCHANTABILITY or FITNESS FOR A PARTICULAR PURPOSE. See the GNU      |
| Lesser General Public License for more details.                       |
|                                                                       |
| You should have received a copy of the GNU Lesser General Public      |
| License along with SU2. If not, see <http://www.gnu.org/licenses/>.   |
-------------------------------------------------------------------------

Parsing config file for zone 0

----------------- Physical Case Definition ( Zone 0 ) -------------------
Compressible RANS equations.
Turbulence model: Spalart-Allmaras-noft2-BCM
Hybrid RANS/LES: No Hybrid RANS/LES
Mach number: 0.5.
Angle of attack (AoA): -40 deg, and angle of sideslip (AoS): 0 deg.
Reynolds number: 600000. Reference length 1.00141.
No restart solution, use the values at infinity (freestream).
Dimensional simulation.
The reference area will be computed using y(2D) or z(3D) projection.
The semi-span will be computed using the max y(3D) value.
The reference length is 1.00141 m.
Reference origin for moment evaluation is (0, 0, 0).
Surface(s) where the force coefficients are evaluated: blade1.

Surface(s) plotted in the output file: blade1.
Surface(s) to be analyzed in detail: inlet, outlet, blade1.
Input mesh file name: cascade2D_databladeVALIDATION_Blade_15.su2

--------------- Space Numerical Integration ( Zone 0 ) ------------------
Jameson-Schmidt-Turkel scheme (2nd order in space) for the flow inviscid terms.
JST viscous coefficients (2nd & 4th): 0.5, 0.02.
The method includes a grid stretching correction (p = 0.3).
Scalar upwind solver for the turbulence model.
First order integration in space.
Average of gradients with correction (viscous flow terms).
Average of gradients with correction (viscous turbulence terms).
Gradient for upwind reconstruction: inverse-distance weighted Least-Squares.
Gradient for viscous and source terms: inverse-distance weighted Least-Squares.

--------------- Time Numerical Integration  ( Zone 0 ) ------------------
Local time stepping (steady state simulation).
Euler implicit method for the flow equations.
FGMRES is used for solving the linear system.
Using a LU-SGS preconditioning.
Convergence criteria of the linear solver: 0.0001.
Max number of linear iterations: 10.
V Multigrid Cycle, with 3 multigrid levels.
Damping factor for the residual restriction: 0.75.
Damping factor for the correction prolongation: 0.75.
CFL adaptation. Factor down: 0.1, factor up: 1.2,
                lower limit: 0.1, upper limit: 100,
                acceptable linear residual: 0.001.
+-------------------------------------------+
|  MG Level| Presmooth|PostSmooth|CorrectSmo|
+-------------------------------------------+
|         0|         1|         0|         1|
|         1|         2|         2|         2|
|         2|         3|         3|         3|
|         3|         3|         0|         0|
+-------------------------------------------+
Courant-Friedrichs-Lewy number:       12
Euler implicit time integration for the turbulence model.

------------------ Convergence Criteria  ( Zone 0 ) ---------------------
Maximum number of solver subiterations: 7000.
Begin convergence monitoring at iteration 500.
Residual minimum value: 1e-7.
Cauchy series min. value: 1e-10.
Number of Cauchy elements: 100.
Begin windowed time average at iteration 0.

-------------------- Output Information ( Zone 0 ) ----------------------
File writing frequency: 
+------------------------------------+
|                     File| Frequency|
+------------------------------------+
|                  RESTART|        50|
|                 PARAVIEW|        50|
|         SURFACE_PARAVIEW|        50|
|                      CSV|        50|
|              SURFACE_CSV|        50|
+------------------------------------+
Writing the convergence history file every 1 inner iterations.
Writing the screen convergence history every 10 inner iterations.
The tabular file format is CSV (.csv).
Convergence history file name: history_databladeVALIDATION_Blade_15.
Forces breakdown file name: forces_breakdown.dat.
Surface file name: surface_flowdatabladeVALIDATION_Blade_15.
Volume file name: volume_flow_databladeVALIDATION_Blade_15.
Restart file name: restart_flow_databladeVALIDATION_Blade_15.dat.

------------- Config File Boundary Information ( Zone 0 ) ---------------
+-----------------------------------------------------------------------+
|                        Marker Type|                        Marker Name|
+-----------------------------------------------------------------------+
|                  Periodic boundary|               symmetricWallsBOTTOM|
|                                   |                  symmetricWallsTOP|
+-----------------------------------------------------------------------+
|                     Inlet boundary|                              inlet|
+-----------------------------------------------------------------------+
|                    Outlet boundary|                             outlet|
+-----------------------------------------------------------------------+
|                     Heat flux wall|                             blade1|
|                                   |                             blade2|
+-----------------------------------------------------------------------+

-------------------- Output Preprocessing ( Zone 0 ) --------------------
  Info: Ignoring the following screen output fields:
  LINSOL_ITER_TRANS, LINSOL_RESIDUAL_TRANS
Screen output fields: INNER_ITER, WALL_TIME, RMS_DENSITY
  Info: Ignoring the following history output groups:
  RMS_TKE, RMS_DISSIPATION
History output group(s): INNER_ITER, WALL_TIME, RMS_DENSITY, RMS_MOMENTUM-X, RMS_ENERGY, LINSOL, CFL_NUMBER, FLOW_COEFF_SURF, AERO_COEFF_SURF
Convergence field(s): RMS_DENSITY
Warning: No (valid) fields chosen for time convergence monitoring. Time convergence monitoring inactive.
Volume output fields: COORDINATES, SOLUTION, PRIMITIVE, RESIDUAL, TIMESTEP, MESH_QUALITY, VORTEX_IDENTIFICATION

------------------- Geometry Preprocessing ( Zone 0 ) -------------------
Two dimensional problem.
68349 grid points before partitioning.
104980 volume elements before partitioning.
5 surface markers.
29 boundary elements in index 0 (Marker = inlet).
385 boundary elements in index 1 (Marker = symmetricWallsBOTTOM).
385 boundary elements in index 2 (Marker = symmetricWallsTOP).
83 boundary elements in index 3 (Marker = outlet).
1186 boundary elements in index 4 (Marker = blade1).
Executing the partitioning functions.
Building the graph adjacency structure.
Calling ParMETIS... graph partitioning complete (1480 edge cuts).
Distributing ParMETIS coloring.
Rebalancing vertices.
Rebalancing volume element connectivity.
Rebalancing markers and surface elements.
70175 vertices including ghost points. 
106450 interior elements including halo cells. 
76468 triangles.
29982 quadrilaterals.
Establishing MPI communication patterns.
Setting point connectivity.
Renumbering points (Reverse Cuthill McKee Ordering).
Recomputing point connectivity.
Setting element connectivity.
Checking the numerical grid orientation.
All volume elements are correctly orientend.
There has been a re-orientation of 1017 LINE surface elements.
Identifying edges and vertices.
Setting the control volume structure.
Area of the computational grid: 3.82851.
Searching for the closest normal neighbors to the surfaces.
Storing a mapping from global to local point index.
Compute the surface curvature.
Max K: 139.753. Mean K: 3.71612. Standard deviation K: 13.5424.
Checking for periodicity.
WARNING: Periodicity has been detected. Disabling multigrid. 
Computing mesh quality statistics for the dual control volumes.
+--------------------------------------------------------------+
|           Mesh Quality Metric|        Minimum|        Maximum|
+--------------------------------------------------------------+
|    Orthogonality Angle (deg.)|        46.0785|             90|
|     CV Face Area Aspect Ratio|        1.00038|        307.453|
|           CV Sub-Volume Ratio|              1|         37.143|
+--------------------------------------------------------------+
Finding max control volume width.
Communicating number of neighbors.
Reference length = 1.02269 m.
Wetted area = 3.03605 m.
Area projection in the x-plane = 0.95618 m, y-plane = 1.02269 m.
Max. coordinate in the x-direction = 1.01321 m, y-direction = 0.610412 m.
Min. coordinate in the x-direction = -0.00951093 m, y-direction = -0.332486 m.
Matching the periodic boundary points for marker pair 1.
 Matched 772 points with a max distance of: 9.74543e-14.
Computing wall distances.

-------------------- Solver Preprocessing ( Zone 0 ) --------------------
Viscous flow: Computing pressure using the ideal gas law
based on the free-stream temperature and a density computed
from the Reynolds number.
Force coefficients computed using free-stream values.

-- Models:
+------------------------------------------------------------------------------+
|          Viscosity Model|        Conductivity Model|              Fluid Model|
+------------------------------------------------------------------------------+
|               SUTHERLAND|          CONSTANT_PRANDTL|                IDEAL_GAS|
+------------------------------------------------------------------------------+
-- Fluid properties:
+------------------------------------------------------------------------------+
|                  Name|    Dim. value|    Ref. value|      Unit|Non-dim. value|
+------------------------------------------------------------------------------+
|        Ref. Viscosity|     1.716e-05|             1|   N.s/m^2|     1.716e-05|
|      Sutherland Temp.|        273.15|             1|         K|        273.15|
|     Sutherland Const.|         110.4|             1|         K|         110.4|
+------------------------------------------------------------------------------+
|        Prandtl (Lam.)|             -|             -|         -|          0.72|
|       Prandtl (Turb.)|             -|             -|         -|           0.9|
+------------------------------------------------------------------------------+
|          Gas Constant|       287.058|             1|  N.m/kg.K|       287.058|
|      Spec. Heat Ratio|             -|             -|         -|           1.4|
+------------------------------------------------------------------------------+
-- Initial and free-stream conditions:
+------------------------------------------------------------------------------+
|                  Name|    Dim. value|    Ref. value|      Unit|Non-dim. value|
+------------------------------------------------------------------------------+
|       Static Pressure|       5486.07|             1|        Pa|       5486.07|
|               Density|     0.0637046|             1|    kg/m^3|     0.0637046|
|           Temperature|           300|             1|         K|           300|
|          Total Energy|        230364|             1|   m^2/s^2|        230364|
|            Velocity-X|       132.994|             1|       m/s|       132.994|
|            Velocity-Y|      -111.596|             1|       m/s|      -111.596|
|    Velocity Magnitude|       173.612|             1|       m/s|       173.612|
+------------------------------------------------------------------------------+
|             Viscosity|   1.84592e-05|             1|   N.s/m^2|   1.84592e-05|
|          Conductivity|             -|             1|   W/m^2.K|             -|
|     Turb. Kin. Energy|       55.3843|             1|   m^2/s^2|       55.3843|
|     Spec. Dissipation|   1.91137e+06|             1|       1/s|   1.91137e+06|
+------------------------------------------------------------------------------+
|           Mach Number|             -|             -|         -|           0.5|
|       Reynolds Number|             -|             -|         -|        600000|
+------------------------------------------------------------------------------+
Initialize Jacobian structure (Navier-Stokes). MG level: 0.
Initialize Jacobian structure (SA model).

------------------- Numerics Preprocessing ( Zone 0 ) -------------------

----------------- Integration Preprocessing ( Zone 0 ) ------------------

------------------- Iteration Preprocessing ( Zone 0 ) ------------------
Euler/Navier-Stokes/RANS fluid iteration.

------------------------------ Begin Solver -----------------------------

Simulation Run using the Single-zone Driver
WARNING: SU2 was not compiled for an AVX-capable architecture. Performance could be better,
         see https://su2code.github.io/docs_v7/Build-SU2-Linux-MacOS/#compiler-optimizations
+--------------------------------------+
|  Inner_Iter|   Time(sec)|    rms[Rho]|
+--------------------------------------+
|           0|  8.1148e-02|   -2.484898|
|          10|  8.2401e-02|   -3.130462|
|          20|  8.2089e-02|   -2.917414|
|          30|  8.1653e-02|   -2.989146|
|          40|  8.0553e-02|   -2.896384|
|          50|  8.0508e-02|   -2.866967|
+-----------------------------------------------------------------------+
|        File Writing Summary       |              Filename             |
+-----------------------------------------------------------------------+
|SU2 binary restart                 |restart_flow_databladeVALIDATION_Blade_15.dat|
|                                   |                     (12379.1 MB/s)|
|Paraview                           |volume_flow_databladeVALIDATION_Blade_15.vtu|
|                                   |                     (936.376 MB/s)|
|Paraview surface                   |surface_flowdatabladeVALIDATION_Blade_15.vtu|
|                                   |                     (74.3909 MB/s)|
|SU2 ASCII restart                  |restart_flow_databladeVALIDATION_Blade_15.csv|
|                                   |                     (21.5273 MB/s)|
|CSV file                           |surface_flowdatabladeVALIDATION_Blade_15.csv|
|                                   |                     (21.5984 MB/s)|
+-----------------------------------------------------------------------+
+--------------------------------------+
|  Inner_Iter|   Time(sec)|    rms[Rho]|
+--------------------------------------+
|          60|  1.2306e-01|   -2.893959|
|          70|  1.1625e-01|   -2.976150|
|          80|  1.1140e-01|   -3.051575|
|          90|  1.0820e-01|   -2.988519|
|         100|  1.0572e-01|   -3.036687|
+-----------------------------------------------------------------------+
|        File Writing Summary       |              Filename             |
+-----------------------------------------------------------------------+
|SU2 binary restart                 |restart_flow_databladeVALIDATION_Blade_15.dat|
|                                   |                     (11810.7 MB/s)|
|Paraview                           |volume_flow_databladeVALIDATION_Blade_15.vtu|
|                                   |                     (1090.71 MB/s)|
|Paraview surface                   |surface_flowdatabladeVALIDATION_Blade_15.vtu|
|                                   |                     (88.4622 MB/s)|
|SU2 ASCII restart                  |restart_flow_databladeVALIDATION_Blade_15.csv|
|                                   |                     (21.2386 MB/s)|
|CSV file                           |surface_flowdatabladeVALIDATION_Blade_15.csv|
|                                   |                      (20.496 MB/s)|
+-----------------------------------------------------------------------+
+--------------------------------------+
|  Inner_Iter|   Time(sec)|    rms[Rho]|
+--------------------------------------+
|         110|  1.2672e-01|   -3.125224|
|         120|  1.2350e-01|   -3.061456|
|         130|  1.2113e-01|   -3.093325|
|         140|  1.1915e-01|   -3.135855|
|         150|  1.1773e-01|   -3.160871|
+-----------------------------------------------------------------------+
|        File Writing Summary       |              Filename             |
+-----------------------------------------------------------------------+
|SU2 binary restart                 |restart_flow_databladeVALIDATION_Blade_15.dat|
|                                   |                     (12588.8 MB/s)|
|Paraview                           |volume_flow_databladeVALIDATION_Blade_15.vtu|
|                                   |                     (1073.43 MB/s)|
|Paraview surface                   |surface_flowdatabladeVALIDATION_Blade_15.vtu|
|                                   |                     (93.1841 MB/s)|
|SU2 ASCII restart                  |restart_flow_databladeVALIDATION_Blade_15.csv|
|                                   |                     (20.9093 MB/s)|
|CSV file                           |surface_flowdatabladeVALIDATION_Blade_15.csv|
|                                   |                     (19.5188 MB/s)|
+-----------------------------------------------------------------------+
+--------------------------------------+
|  Inner_Iter|   Time(sec)|    rms[Rho]|
+--------------------------------------+
|         160|  1.3147e-01|   -3.157887|
|         170|  1.2778e-01|   -3.258663|
|         180|  1.2448e-01|   -3.256915|
|         190|  1.2268e-01|   -3.218968|
|         200|  1.2031e-01|   -3.240378|
+-----------------------------------------------------------------------+
|        File Writing Summary       |              Filename             |
+-----------------------------------------------------------------------+
|SU2 binary restart                 |restart_flow_databladeVALIDATION_Blade_15.dat|
|                                   |                     (13538.3 MB/s)|
|Paraview                           |volume_flow_databladeVALIDATION_Blade_15.vtu|
|                                   |                     (1098.39 MB/s)|
|Paraview surface                   |surface_flowdatabladeVALIDATION_Blade_15.vtu|
|                                   |                     (91.3239 MB/s)|
|SU2 ASCII restart                  |restart_flow_databladeVALIDATION_Blade_15.csv|
|                                   |                     (20.8553 MB/s)|
|CSV file                           |surface_flowdatabladeVALIDATION_Blade_15.csv|
|                                   |                     (20.6621 MB/s)|
+-----------------------------------------------------------------------+
+--------------------------------------+
|  Inner_Iter|   Time(sec)|    rms[Rho]|
+--------------------------------------+
|         210|  1.3004e-01|   -3.295692|
|         220|  1.2753e-01|   -3.267794|
|         230|  1.2539e-01|   -3.178841|
|         240|  1.2342e-01|   -3.206382|
|         250|  1.2121e-01|   -3.220995|
+-----------------------------------------------------------------------+
|        File Writing Summary       |              Filename             |
+-----------------------------------------------------------------------+
|SU2 binary restart                 |restart_flow_databladeVALIDATION_Blade_15.dat|
|                                   |                       (11976 MB/s)|
|Paraview                           |volume_flow_databladeVALIDATION_Blade_15.vtu|
|                                   |                     (896.422 MB/s)|
|Paraview surface                   |surface_flowdatabladeVALIDATION_Blade_15.vtu|
|                                   |                     (77.3952 MB/s)|
|SU2 ASCII restart                  |restart_flow_databladeVALIDATION_Blade_15.csv|
|                                   |                     (21.5514 MB/s)|
|CSV file                           |surface_flowdatabladeVALIDATION_Blade_15.csv|
|                                   |                     (20.5444 MB/s)|
+-----------------------------------------------------------------------+
+--------------------------------------+
|  Inner_Iter|   Time(sec)|    rms[Rho]|
+--------------------------------------+
|         260|  1.2954e-01|   -3.210196|
|         270|  1.2790e-01|   -3.231049|
|         280|  1.2577e-01|   -3.330201|
|         290|  1.2411e-01|   -3.284896|
|         300|  1.2259e-01|   -3.275761|
+-----------------------------------------------------------------------+
|        File Writing Summary       |              Filename             |
+-----------------------------------------------------------------------+
|SU2 binary restart                 |restart_flow_databladeVALIDATION_Blade_15.dat|
|                                   |                     (14815.8 MB/s)|
|Paraview                           |volume_flow_databladeVALIDATION_Blade_15.vtu|
|                                   |                      (1071.2 MB/s)|
|Paraview surface                   |surface_flowdatabladeVALIDATION_Blade_15.vtu|
|                                   |                       (98.83 MB/s)|
|SU2 ASCII restart                  |restart_flow_databladeVALIDATION_Blade_15.csv|
|                                   |                     (20.9968 MB/s)|
|CSV file                           |surface_flowdatabladeVALIDATION_Blade_15.csv|
|                                   |                     (21.1582 MB/s)|
+-----------------------------------------------------------------------+
+--------------------------------------+
|  Inner_Iter|   Time(sec)|    rms[Rho]|
+--------------------------------------+
|         310|  1.2993e-01|   -3.374141|
|         320|  1.2793e-01|   -3.467511|
|         330|  1.2629e-01|   -3.425371|
|         340|  1.2504e-01|   -3.230993|
|         350|  1.2364e-01|   -3.289841|
+-----------------------------------------------------------------------+
|        File Writing Summary       |              Filename             |
+-----------------------------------------------------------------------+
|SU2 binary restart                 |restart_flow_databladeVALIDATION_Blade_15.dat|
|                                   |                     (13491.8 MB/s)|
|Paraview                           |volume_flow_databladeVALIDATION_Blade_15.vtu|
|                                   |                     (973.571 MB/s)|
|Paraview surface                   |surface_flowdatabladeVALIDATION_Blade_15.vtu|
|                                   |                     (98.3583 MB/s)|
|SU2 ASCII restart                  |restart_flow_databladeVALIDATION_Blade_15.csv|
|                                   |                     (21.2189 MB/s)|
|CSV file                           |surface_flowdatabladeVALIDATION_Blade_15.csv|
|                                   |                     (20.0552 MB/s)|
+-----------------------------------------------------------------------+
+--------------------------------------+
|  Inner_Iter|   Time(sec)|    rms[Rho]|
+--------------------------------------+
|         360|  1.2912e-01|   -3.335246|
|         370|  1.2776e-01|   -3.278214|
|         380|  1.2651e-01|   -3.236898|
|         390|  1.2509e-01|   -3.347524|
|         400|  1.2373e-01|   -3.389542|
+-----------------------------------------------------------------------+
|        File Writing Summary       |              Filename             |
+-----------------------------------------------------------------------+
|SU2 binary restart                 |restart_flow_databladeVALIDATION_Blade_15.dat|
|                                   |                     (14150.5 MB/s)|
|Paraview                           |volume_flow_databladeVALIDATION_Blade_15.vtu|
|                                   |                     (1009.75 MB/s)|
|Paraview surface                   |surface_flowdatabladeVALIDATION_Blade_15.vtu|
|                                   |                     (98.8462 MB/s)|
|SU2 ASCII restart                  |restart_flow_databladeVALIDATION_Blade_15.csv|
|                                   |                     (21.6414 MB/s)|
|CSV file                           |surface_flowdatabladeVALIDATION_Blade_15.csv|
|                                   |                     (21.5268 MB/s)|
+-----------------------------------------------------------------------+
+--------------------------------------+
|  Inner_Iter|   Time(sec)|    rms[Rho]|
+--------------------------------------+
|         410|  1.2874e-01|   -3.300348|
|         420|  1.2751e-01|   -3.306195|
|         430|  1.2619e-01|   -3.299776|
|         440|  1.2504e-01|   -3.000154|
|         450|  1.2347e-01|   -2.946248|
+-----------------------------------------------------------------------+
|        File Writing Summary       |              Filename             |
+-----------------------------------------------------------------------+
|SU2 binary restart                 |restart_flow_databladeVALIDATION_Blade_15.dat|
|                                   |                     (13279.5 MB/s)|
|Paraview                           |volume_flow_databladeVALIDATION_Blade_15.vtu|
|                                   |                      (1123.9 MB/s)|
|Paraview surface                   |surface_flowdatabladeVALIDATION_Blade_15.vtu|
|                                   |                     (91.4764 MB/s)|
|SU2 ASCII restart                  |restart_flow_databladeVALIDATION_Blade_15.csv|
|                                   |                     (21.4068 MB/s)|
|CSV file                           |surface_flowdatabladeVALIDATION_Blade_15.csv|
|                                   |                     (21.2812 MB/s)|
+-----------------------------------------------------------------------+
+--------------------------------------+
|  Inner_Iter|   Time(sec)|    rms[Rho]|
+--------------------------------------+
|         460|  1.2729e-01|   -2.905147|
|         470|  1.2587e-01|   -2.681094|
|         480|  1.2445e-01|   -2.517716|
|         490|  1.2287e-01|   -2.550446|
|         500|  1.2176e-01|   -2.412040|
+-----------------------------------------------------------------------+
|        File Writing Summary       |              Filename             |
+-----------------------------------------------------------------------+
|SU2 binary restart                 |restart_flow_databladeVALIDATION_Blade_15.dat|
|                                   |                     (13428.6 MB/s)|
|Paraview                           |volume_flow_databladeVALIDATION_Blade_15.vtu|
|                                   |                     (1059.79 MB/s)|
|Paraview surface                   |surface_flowdatabladeVALIDATION_Blade_15.vtu|
|                                   |                     (97.9586 MB/s)|
|SU2 ASCII restart                  |restart_flow_databladeVALIDATION_Blade_15.csv|
|                                   |                     (20.9838 MB/s)|
|CSV file                           |surface_flowdatabladeVALIDATION_Blade_15.csv|
|                                   |                     (19.6537 MB/s)|
+-----------------------------------------------------------------------+
+--------------------------------------+
|  Inner_Iter|   Time(sec)|    rms[Rho]|
+--------------------------------------+
|         510|  1.2599e-01|   -2.312824|
|         520|  1.2506e-01|   -2.139433|
|         530|  1.2359e-01|   -2.145954|
|         540|  1.2241e-01|   -2.091041|
|         550|  1.2176e-01|   -1.884016|
+-----------------------------------------------------------------------+
|        File Writing Summary       |              Filename             |
+-----------------------------------------------------------------------+
|SU2 binary restart                 |restart_flow_databladeVALIDATION_Blade_15.dat|
|                                   |                     (13332.4 MB/s)|
|Paraview                           |volume_flow_databladeVALIDATION_Blade_15.vtu|
|                                   |                     (979.475 MB/s)|
|Paraview surface                   |surface_flowdatabladeVALIDATION_Blade_15.vtu|
|                                   |                     (103.324 MB/s)|
|SU2 ASCII restart                  |restart_flow_databladeVALIDATION_Blade_15.csv|
|                                   |                      (21.418 MB/s)|
|CSV file                           |surface_flowdatabladeVALIDATION_Blade_15.csv|
|                                   |                      (19.516 MB/s)|
+-----------------------------------------------------------------------+
+--------------------------------------+
|  Inner_Iter|   Time(sec)|    rms[Rho]|
+--------------------------------------+
|         560|  1.2563e-01|   -1.914188|
|         570|  1.2473e-01|   -1.799212|
|         580|  1.2378e-01|   -1.622601|
|         590|  1.2252e-01|   -1.631098|
|         600|  1.2166e-01|   -1.607939|
+-----------------------------------------------------------------------+
|        File Writing Summary       |              Filename             |
+-----------------------------------------------------------------------+
|SU2 binary restart                 |restart_flow_databladeVALIDATION_Blade_15.dat|
|                                   |                     (14831.6 MB/s)|
|Paraview                           |volume_flow_databladeVALIDATION_Blade_15.vtu|
|                                   |                     (1060.38 MB/s)|
|Paraview surface                   |surface_flowdatabladeVALIDATION_Blade_15.vtu|
|                                   |                      (99.462 MB/s)|
|SU2 ASCII restart                  |restart_flow_databladeVALIDATION_Blade_15.csv|
|                                   |                      (21.951 MB/s)|
|CSV file                           |surface_flowdatabladeVALIDATION_Blade_15.csv|
|                                   |                     (20.6934 MB/s)|
+-----------------------------------------------------------------------+
+--------------------------------------+
|  Inner_Iter|   Time(sec)|    rms[Rho]|
+--------------------------------------+
|         610|  1.2513e-01|   -1.592214|
|         620|  1.2459e-01|   -1.655533|
|         630|  1.2383e-01|   -1.649363|
|         640|  1.2315e-01|   -1.722894|
|         650|  1.2262e-01|   -1.693148|
+-----------------------------------------------------------------------+
|        File Writing Summary       |              Filename             |
+-----------------------------------------------------------------------+
|SU2 binary restart                 |restart_flow_databladeVALIDATION_Blade_15.dat|
|                                   |                     (12847.7 MB/s)|
|Paraview                           |volume_flow_databladeVALIDATION_Blade_15.vtu|
|                                   |                     (1111.51 MB/s)|
|Paraview surface                   |surface_flowdatabladeVALIDATION_Blade_15.vtu|
|                                   |                     (95.5932 MB/s)|
|SU2 ASCII restart                  |restart_flow_databladeVALIDATION_Blade_15.csv|
|                                   |                     (21.5724 MB/s)|
|CSV file                           |surface_flowdatabladeVALIDATION_Blade_15.csv|
|                                   |                     (20.5335 MB/s)|
+-----------------------------------------------------------------------+
+--------------------------------------+
|  Inner_Iter|   Time(sec)|    rms[Rho]|
+--------------------------------------+
|         660|  1.2576e-01|   -1.651834|
|         670|  1.2502e-01|   -1.664326|
|         680|  1.2440e-01|   -1.640928|
|         690|  1.2385e-01|   -1.622600|
|         700|  1.2318e-01|   -1.590348|
+-----------------------------------------------------------------------+
|        File Writing Summary       |              Filename             |
+-----------------------------------------------------------------------+
|SU2 binary restart                 |restart_flow_databladeVALIDATION_Blade_15.dat|
|                                   |                     (12944.4 MB/s)|
|Paraview                           |volume_flow_databladeVALIDATION_Blade_15.vtu|
|                                   |                     (930.831 MB/s)|
|Paraview surface                   |surface_flowdatabladeVALIDATION_Blade_15.vtu|
|                                   |                     (98.3904 MB/s)|
|SU2 ASCII restart                  |restart_flow_databladeVALIDATION_Blade_15.csv|
|                                   |                      (21.579 MB/s)|
|CSV file                           |surface_flowdatabladeVALIDATION_Blade_15.csv|
|                                   |                     (19.5099 MB/s)|
+-----------------------------------------------------------------------+
+--------------------------------------+
|  Inner_Iter|   Time(sec)|    rms[Rho]|
+--------------------------------------+
|         710|  1.2610e-01|   -1.648203|
|         720|  1.2549e-01|   -1.613031|
|         730|  1.2495e-01|   -1.636113|
|         740|  1.2448e-01|   -1.685900|
|         750|  1.2413e-01|   -1.681272|
+-----------------------------------------------------------------------+
|        File Writing Summary       |              Filename             |
+-----------------------------------------------------------------------+
|SU2 binary restart                 |restart_flow_databladeVALIDATION_Blade_15.dat|
|                                   |                     (11647.7 MB/s)|
|Paraview                           |volume_flow_databladeVALIDATION_Blade_15.vtu|
|                                   |                     (813.747 MB/s)|
|Paraview surface                   |surface_flowdatabladeVALIDATION_Blade_15.vtu|
|                                   |                     (98.9111 MB/s)|
|SU2 ASCII restart                  |restart_flow_databladeVALIDATION_Blade_15.csv|
|                                   |                     (20.3883 MB/s)|
|CSV file                           |surface_flowdatabladeVALIDATION_Blade_15.csv|
|                                   |                     (21.8734 MB/s)|
+-----------------------------------------------------------------------+
+--------------------------------------+
|  Inner_Iter|   Time(sec)|    rms[Rho]|
+--------------------------------------+
|         760|  1.2704e-01|   -1.716756|
|         770|  1.2634e-01|   -1.764711|
|         780|  1.2579e-01|   -1.794402|
|         790|  1.2522e-01|   -1.744615|
|         800|  1.2451e-01|   -1.646074|
+-----------------------------------------------------------------------+
|        File Writing Summary       |              Filename             |
+-----------------------------------------------------------------------+
|SU2 binary restart                 |restart_flow_databladeVALIDATION_Blade_15.dat|
|                                   |                     (11946.7 MB/s)|
|Paraview                           |volume_flow_databladeVALIDATION_Blade_15.vtu|
|                                   |                     (1099.69 MB/s)|
|Paraview surface                   |surface_flowdatabladeVALIDATION_Blade_15.vtu|
|                                   |                     (88.7945 MB/s)|
|SU2 ASCII restart                  |restart_flow_databladeVALIDATION_Blade_15.csv|
|                                   |                     (21.1654 MB/s)|
|CSV file                           |surface_flowdatabladeVALIDATION_Blade_15.csv|
|                                   |                     (20.9006 MB/s)|
+-----------------------------------------------------------------------+
+--------------------------------------+
|  Inner_Iter|   Time(sec)|    rms[Rho]|
+--------------------------------------+
|         810|  1.2711e-01|   -1.605902|
|         820|  1.2640e-01|   -1.618064|
|         830|  1.2549e-01|   -1.740325|
|         840|  1.2483e-01|   -1.756903|
|         850|  1.2444e-01|   -1.783676|
+-----------------------------------------------------------------------+
|        File Writing Summary       |              Filename             |
+-----------------------------------------------------------------------+
|SU2 binary restart                 |restart_flow_databladeVALIDATION_Blade_15.dat|
|                                   |                     (12550.4 MB/s)|
|Paraview                           |volume_flow_databladeVALIDATION_Blade_15.vtu|
|                                   |                     (1018.13 MB/s)|
|Paraview surface                   |surface_flowdatabladeVALIDATION_Blade_15.vtu|
|                                   |                     (84.1017 MB/s)|
|SU2 ASCII restart                  |restart_flow_databladeVALIDATION_Blade_15.csv|
|                                   |                     (21.5714 MB/s)|
|CSV file                           |surface_flowdatabladeVALIDATION_Blade_15.csv|
|                                   |                     (21.2841 MB/s)|
+-----------------------------------------------------------------------+
+--------------------------------------+
|  Inner_Iter|   Time(sec)|    rms[Rho]|
+--------------------------------------+
|         860|  1.2669e-01|   -1.809825|
|         870|  1.2571e-01|   -1.810277|
|         880|  1.2485e-01|   -1.814645|
|         890|  1.2431e-01|   -1.829461|
|         900|  1.2376e-01|   -1.866285|
+-----------------------------------------------------------------------+
|        File Writing Summary       |              Filename             |
+-----------------------------------------------------------------------+
|SU2 binary restart                 |restart_flow_databladeVALIDATION_Blade_15.dat|
|                                   |                     (13273.6 MB/s)|
|Paraview                           |volume_flow_databladeVALIDATION_Blade_15.vtu|
|                                   |                     (1095.59 MB/s)|
|Paraview surface                   |surface_flowdatabladeVALIDATION_Blade_15.vtu|
|                                   |                     (96.8995 MB/s)|
|SU2 ASCII restart                  |restart_flow_databladeVALIDATION_Blade_15.csv|
|                                   |                      (21.203 MB/s)|
|CSV file                           |surface_flowdatabladeVALIDATION_Blade_15.csv|
|                                   |                       (20.65 MB/s)|
+-----------------------------------------------------------------------+
+--------------------------------------+
|  Inner_Iter|   Time(sec)|    rms[Rho]|
+--------------------------------------+
|         910|  1.2620e-01|   -1.906620|
|         920|  1.2568e-01|   -1.912890|
|         930|  1.2512e-01|   -1.906040|
|         940|  1.2460e-01|   -1.881037|
|         950|  1.2429e-01|   -1.883534|
+-----------------------------------------------------------------------+
|        File Writing Summary       |              Filename             |
+-----------------------------------------------------------------------+
|SU2 binary restart                 |restart_flow_databladeVALIDATION_Blade_15.dat|
|                                   |                     (16589.3 MB/s)|
|Paraview                           |volume_flow_databladeVALIDATION_Blade_15.vtu|
|                                   |                     (943.667 MB/s)|
|Paraview surface                   |surface_flowdatabladeVALIDATION_Blade_15.vtu|
|                                   |                     (84.9942 MB/s)|
|SU2 ASCII restart                  |restart_flow_databladeVALIDATION_Blade_15.csv|
|                                   |                     (21.6962 MB/s)|
|CSV file                           |surface_flowdatabladeVALIDATION_Blade_15.csv|
|                                   |                     (18.2061 MB/s)|
+-----------------------------------------------------------------------+
+--------------------------------------+
|  Inner_Iter|   Time(sec)|    rms[Rho]|
+--------------------------------------+
|         960|  1.2637e-01|   -1.904036|
|         970|  1.2578e-01|   -1.920794|
|         980|  1.2523e-01|   -1.937637|
|         990|  1.2469e-01|   -1.952381|
|        1000|  1.2411e-01|   -1.965431|
+-----------------------------------------------------------------------+
|        File Writing Summary       |              Filename             |
+-----------------------------------------------------------------------+
|SU2 binary restart                 |restart_flow_databladeVALIDATION_Blade_15.dat|
|                                   |                     (13380.8 MB/s)|
|Paraview                           |volume_flow_databladeVALIDATION_Blade_15.vtu|
|                                   |                     (1091.15 MB/s)|
|Paraview surface                   |surface_flowdatabladeVALIDATION_Blade_15.vtu|
|                                   |                     (98.8179 MB/s)|
|SU2 ASCII restart                  |restart_flow_databladeVALIDATION_Blade_15.csv|
|                                   |                     (21.3765 MB/s)|
|CSV file                           |surface_flowdatabladeVALIDATION_Blade_15.csv|
|                                   |                     (20.7791 MB/s)|
+-----------------------------------------------------------------------+
+--------------------------------------+
|  Inner_Iter|   Time(sec)|    rms[Rho]|
+--------------------------------------+
|        1010|  1.2611e-01|   -1.981969|
|        1020|  1.2557e-01|   -1.999068|
|        1030|  1.2513e-01|   -2.017145|
|        1040|  1.2458e-01|   -2.029226|
|        1050|  1.2407e-01|   -2.036022|
+-----------------------------------------------------------------------+
|        File Writing Summary       |              Filename             |
+-----------------------------------------------------------------------+
|SU2 binary restart                 |restart_flow_databladeVALIDATION_Blade_15.dat|
|                                   |                     (13766.4 MB/s)|
|Paraview                           |volume_flow_databladeVALIDATION_Blade_15.vtu|
|                                   |                     (1162.57 MB/s)|
|Paraview surface                   |surface_flowdatabladeVALIDATION_Blade_15.vtu|
|                                   |                     (102.429 MB/s)|
|SU2 ASCII restart                  |restart_flow_databladeVALIDATION_Blade_15.csv|
|                                   |                     (20.8301 MB/s)|
|CSV file                           |surface_flowdatabladeVALIDATION_Blade_15.csv|
|                                   |                     (20.6991 MB/s)|
+-----------------------------------------------------------------------+
+--------------------------------------+
|  Inner_Iter|   Time(sec)|    rms[Rho]|
+--------------------------------------+
|        1060|  1.2606e-01|   -2.036060|
|        1070|  1.2562e-01|   -2.034610|
|        1080|  1.2509e-01|   -2.022079|
|        1090|  1.2480e-01|   -2.039586|
|        1100|  1.2437e-01|   -2.041294|
+-----------------------------------------------------------------------+
|        File Writing Summary       |              Filename             |
+-----------------------------------------------------------------------+
|SU2 binary restart                 |restart_flow_databladeVALIDATION_Blade_15.dat|
|                                   |                       (11255 MB/s)|
|Paraview                           |volume_flow_databladeVALIDATION_Blade_15.vtu|
|                                   |                     (999.186 MB/s)|
|Paraview surface                   |surface_flowdatabladeVALIDATION_Blade_15.vtu|
|                                   |                     (37.3083 MB/s)|
|SU2 ASCII restart                  |restart_flow_databladeVALIDATION_Blade_15.csv|
|                                   |                     (21.7055 MB/s)|
|CSV file                           |surface_flowdatabladeVALIDATION_Blade_15.csv|
|                                   |                     (21.8116 MB/s)|
+-----------------------------------------------------------------------+
+--------------------------------------+
|  Inner_Iter|   Time(sec)|    rms[Rho]|
+--------------------------------------+
|        1110|  1.2633e-01|   -2.046023|
|        1120|  1.2590e-01|   -2.052084|
|        1130|  1.2542e-01|   -2.047070|
|        1140|  1.2498e-01|   -2.061780|
|        1150|  1.2445e-01|   -2.065873|
+-----------------------------------------------------------------------+
|        File Writing Summary       |              Filename             |
+-----------------------------------------------------------------------+
|SU2 binary restart                 |restart_flow_databladeVALIDATION_Blade_15.dat|
|                                   |                     (13498.9 MB/s)|
|Paraview                           |volume_flow_databladeVALIDATION_Blade_15.vtu|
|                                   |                     (1077.79 MB/s)|
|Paraview surface                   |surface_flowdatabladeVALIDATION_Blade_15.vtu|
|                                   |                     (98.8503 MB/s)|
|SU2 ASCII restart                  |restart_flow_databladeVALIDATION_Blade_15.csv|
|                                   |                     (21.5789 MB/s)|
|CSV file                           |surface_flowdatabladeVALIDATION_Blade_15.csv|
|                                   |                     (21.7768 MB/s)|
+-----------------------------------------------------------------------+
+--------------------------------------+
|  Inner_Iter|   Time(sec)|    rms[Rho]|
+--------------------------------------+
|        1160|  1.2616e-01|   -2.066582|
|        1170|  1.2556e-01|   -2.072383|
|        1180|  1.2485e-01|   -2.073869|
|        1190|  1.2417e-01|   -2.076311|
|        1200|  1.2365e-01|   -2.077581|
+-----------------------------------------------------------------------+
|        File Writing Summary       |              Filename             |
+-----------------------------------------------------------------------+
|SU2 binary restart                 |restart_flow_databladeVALIDATION_Blade_15.dat|
|                                   |                     (13824.4 MB/s)|
|Paraview                           |volume_flow_databladeVALIDATION_Blade_15.vtu|
|                                   |                     (645.055 MB/s)|
|Paraview surface                   |surface_flowdatabladeVALIDATION_Blade_15.vtu|
|                                   |                     (43.8538 MB/s)|
|SU2 ASCII restart                  |restart_flow_databladeVALIDATION_Blade_15.csv|
|                                   |                     (21.7816 MB/s)|
|CSV file                           |surface_flowdatabladeVALIDATION_Blade_15.csv|
|                                   |                     (21.1909 MB/s)|
+-----------------------------------------------------------------------+
+--------------------------------------+
|  Inner_Iter|   Time(sec)|    rms[Rho]|
+--------------------------------------+
|        1210|  1.2508e-01|   -2.078648|
|        1220|  1.2437e-01|   -2.078024|
|        1230|  1.2370e-01|   -2.078066|
|        1240|  1.2299e-01|   -2.078732|
|        1250|  1.2231e-01|   -2.078121|
+-----------------------------------------------------------------------+
|        File Writing Summary       |              Filename             |
+-----------------------------------------------------------------------+
|SU2 binary restart                 |restart_flow_databladeVALIDATION_Blade_15.dat|
|                                   |                     (13045.4 MB/s)|
|Paraview                           |volume_flow_databladeVALIDATION_Blade_15.vtu|
|                                   |                     (1057.46 MB/s)|
|Paraview surface                   |surface_flowdatabladeVALIDATION_Blade_15.vtu|
|                                   |                     (83.0129 MB/s)|
|SU2 ASCII restart                  |restart_flow_databladeVALIDATION_Blade_15.csv|
|                                   |                      (21.024 MB/s)|
|CSV file                           |surface_flowdatabladeVALIDATION_Blade_15.csv|
|                                   |                     (21.5419 MB/s)|
+-----------------------------------------------------------------------+
+--------------------------------------+
|  Inner_Iter|   Time(sec)|    rms[Rho]|
+--------------------------------------+
|        1260|  1.2368e-01|   -2.078766|
|        1270|  1.2298e-01|   -2.078782|
|        1280|  1.2229e-01|   -2.078194|
|        1290|  1.2160e-01|   -2.078212|
|        1300|  1.2093e-01|   -2.078227|
+-----------------------------------------------------------------------+
|        File Writing Summary       |              Filename             |
+-----------------------------------------------------------------------+
|SU2 binary restart                 |restart_flow_databladeVALIDATION_Blade_15.dat|
|                                   |                     (12731.8 MB/s)|
|Paraview                           |volume_flow_databladeVALIDATION_Blade_15.vtu|
|                                   |                     (1058.79 MB/s)|
|Paraview surface                   |surface_flowdatabladeVALIDATION_Blade_15.vtu|
|                                   |                     (98.6885 MB/s)|
|SU2 ASCII restart                  |restart_flow_databladeVALIDATION_Blade_15.csv|
|                                   |                     (21.6673 MB/s)|
|CSV file                           |surface_flowdatabladeVALIDATION_Blade_15.csv|
|                                   |                     (19.9645 MB/s)|
+-----------------------------------------------------------------------+
+--------------------------------------+
|  Inner_Iter|   Time(sec)|    rms[Rho]|
+--------------------------------------+
|        1310|  1.2220e-01|   -2.078239|
|        1320|  1.2154e-01|   -2.078813|
|        1330|  1.2090e-01|   -2.078810|
|        1340|  1.2026e-01|   -2.078258|
|        1350|  1.1963e-01|   -2.078795|
+-----------------------------------------------------------------------+
|        File Writing Summary       |              Filename             |
+-----------------------------------------------------------------------+
|SU2 binary restart                 |restart_flow_databladeVALIDATION_Blade_15.dat|
|                                   |                     (13311.8 MB/s)|
|Paraview                           |volume_flow_databladeVALIDATION_Blade_15.vtu|
|                                   |                     (1120.66 MB/s)|
|Paraview surface                   |surface_flowdatabladeVALIDATION_Blade_15.vtu|
|                                   |                     (94.3327 MB/s)|
|SU2 ASCII restart                  |restart_flow_databladeVALIDATION_Blade_15.csv|
|                                   |                     (21.4631 MB/s)|
|CSV file                           |surface_flowdatabladeVALIDATION_Blade_15.csv|
|                                   |                     (21.8826 MB/s)|
+-----------------------------------------------------------------------+
+--------------------------------------+
|  Inner_Iter|   Time(sec)|    rms[Rho]|
+--------------------------------------+
|        1360|  1.2089e-01|   -2.078254|
|        1370|  1.2026e-01|   -2.078248|
|        1380|  1.1964e-01|   -2.078238|
|        1390|  1.1902e-01|   -2.078225|
|        1400|  1.1842e-01|   -2.078210|
+-----------------------------------------------------------------------+
|        File Writing Summary       |              Filename             |
+-----------------------------------------------------------------------+
|SU2 binary restart                 |restart_flow_databladeVALIDATION_Blade_15.dat|
|                                   |                     (14623.8 MB/s)|
|Paraview                           |volume_flow_databladeVALIDATION_Blade_15.vtu|
|                                   |                     (1231.15 MB/s)|
|Paraview surface                   |surface_flowdatabladeVALIDATION_Blade_15.vtu|
|                                   |                     (80.8037 MB/s)|
|SU2 ASCII restart                  |restart_flow_databladeVALIDATION_Blade_15.csv|
|                                   |                     (21.8694 MB/s)|
|CSV file                           |surface_flowdatabladeVALIDATION_Blade_15.csv|
|                                   |                     (21.9763 MB/s)|
+-----------------------------------------------------------------------+
+--------------------------------------+
|  Inner_Iter|   Time(sec)|    rms[Rho]|
+--------------------------------------+
|        1410|  1.1960e-01|   -2.078192|
|        1420|  1.1901e-01|   -2.078646|
|        1430|  1.1841e-01|   -2.078146|
|        1440|  1.1783e-01|   -2.078580|
|        1450|  1.1726e-01|   -2.077387|
+-----------------------------------------------------------------------+
|        File Writing Summary       |              Filename             |
+-----------------------------------------------------------------------+
|SU2 binary restart                 |restart_flow_databladeVALIDATION_Blade_15.dat|
|                                   |                       (10760 MB/s)|
|Paraview                           |volume_flow_databladeVALIDATION_Blade_15.vtu|
|                                   |                      (1028.5 MB/s)|
|Paraview surface                   |surface_flowdatabladeVALIDATION_Blade_15.vtu|
|                                   |                     (101.583 MB/s)|
|SU2 ASCII restart                  |restart_flow_databladeVALIDATION_Blade_15.csv|
|                                   |                     (21.6191 MB/s)|
|CSV file                           |surface_flowdatabladeVALIDATION_Blade_15.csv|
|                                   |                     (19.1673 MB/s)|
+-----------------------------------------------------------------------+
+--------------------------------------+
|  Inner_Iter|   Time(sec)|    rms[Rho]|
+--------------------------------------+
|        1460|  1.1843e-01|   -2.078064|
|        1470|  1.1786e-01|   -2.078033|
|        1480|  1.1729e-01|   -2.078003|
|        1490|  1.1676e-01|   -2.078390|
|        1500|  1.1624e-01|   -2.077257|
+-----------------------------------------------------------------------+
|        File Writing Summary       |              Filename             |
+-----------------------------------------------------------------------+
|SU2 binary restart                 |restart_flow_databladeVALIDATION_Blade_15.dat|
|                                   |                     (13721.5 MB/s)|
|Paraview                           |volume_flow_databladeVALIDATION_Blade_15.vtu|
|                                   |                     (675.404 MB/s)|
|Paraview surface                   |surface_flowdatabladeVALIDATION_Blade_15.vtu|
|                                   |                     (73.2651 MB/s)|
|SU2 ASCII restart                  |restart_flow_databladeVALIDATION_Blade_15.csv|
|                                   |                     (21.4895 MB/s)|
|CSV file                           |surface_flowdatabladeVALIDATION_Blade_15.csv|
|                                   |                     (19.0178 MB/s)|
+-----------------------------------------------------------------------+
+--------------------------------------+
|  Inner_Iter|   Time(sec)|    rms[Rho]|
+--------------------------------------+
|        1510|  1.1740e-01|   -2.077906|
|        1520|  1.1685e-01|   -2.077871|
|        1530|  1.1630e-01|   -2.077833|
|        1540|  1.1577e-01|   -2.077794|
|        1550|  1.1524e-01|   -2.077754|
+-----------------------------------------------------------------------+
|        File Writing Summary       |              Filename             |
+-----------------------------------------------------------------------+
|SU2 binary restart                 |restart_flow_databladeVALIDATION_Blade_15.dat|
|                                   |                     (11708.9 MB/s)|
|Paraview                           |volume_flow_databladeVALIDATION_Blade_15.vtu|
|                                   |                     (1095.15 MB/s)|
|Paraview surface                   |surface_flowdatabladeVALIDATION_Blade_15.vtu|
|                                   |                     (104.907 MB/s)|
|SU2 ASCII restart                  |restart_flow_databladeVALIDATION_Blade_15.csv|
|                                   |                     (21.5966 MB/s)|
|CSV file                           |surface_flowdatabladeVALIDATION_Blade_15.csv|
|                                   |                      (22.164 MB/s)|
+-----------------------------------------------------------------------+
+--------------------------------------+
|  Inner_Iter|   Time(sec)|    rms[Rho]|
+--------------------------------------+
|        1560|  1.1635e-01|   -2.077711|
|        1570|  1.1583e-01|   -2.077667|
|        1580|  1.1534e-01|   -2.077621|
|        1590|  1.1484e-01|   -2.077573|
|        1600|  1.1435e-01|   -2.077523|
+-----------------------------------------------------------------------+
|        File Writing Summary       |              Filename             |
+-----------------------------------------------------------------------+
|SU2 binary restart                 |restart_flow_databladeVALIDATION_Blade_15.dat|
|                                   |                     (10445.7 MB/s)|
|Paraview                           |volume_flow_databladeVALIDATION_Blade_15.vtu|
|                                   |                     (682.405 MB/s)|
|Paraview surface                   |surface_flowdatabladeVALIDATION_Blade_15.vtu|
|                                   |                     (108.261 MB/s)|
|SU2 ASCII restart                  |restart_flow_databladeVALIDATION_Blade_15.csv|
|                                   |                     (20.9112 MB/s)|
|CSV file                           |surface_flowdatabladeVALIDATION_Blade_15.csv|
|                                   |                     (19.8493 MB/s)|
+-----------------------------------------------------------------------+
+--------------------------------------+
|  Inner_Iter|   Time(sec)|    rms[Rho]|
+--------------------------------------+
|        1610|  1.1553e-01|   -2.077472|
|        1620|  1.1507e-01|   -2.076793|
|        1630|  1.1461e-01|   -2.077364|
|        1640|  1.1413e-01|   -2.077308|
|        1650|  1.1369e-01|   -2.077251|
+-----------------------------------------------------------------------+
|        File Writing Summary       |              Filename             |
+-----------------------------------------------------------------------+
|SU2 binary restart                 |restart_flow_databladeVALIDATION_Blade_15.dat|
|                                   |                     (13295.1 MB/s)|
|Paraview                           |volume_flow_databladeVALIDATION_Blade_15.vtu|
|                                   |                     (761.815 MB/s)|
|Paraview surface                   |surface_flowdatabladeVALIDATION_Blade_15.vtu|
|                                   |                     (68.0919 MB/s)|
|SU2 ASCII restart                  |restart_flow_databladeVALIDATION_Blade_15.csv|
|                                   |                     (19.4426 MB/s)|
|CSV file                           |surface_flowdatabladeVALIDATION_Blade_15.csv|
|                                   |                     (20.5709 MB/s)|
+-----------------------------------------------------------------------+
+--------------------------------------+
|  Inner_Iter|   Time(sec)|    rms[Rho]|
+--------------------------------------+
|        1660|  1.1492e-01|   -2.077193|
|        1670|  1.1444e-01|   -2.077133|
|        1680|  1.1444e-01|   -2.077073|
|        1690|  1.1398e-01|   -2.077011|
|        1700|  1.1352e-01|   -2.076949|
+-----------------------------------------------------------------------+
|        File Writing Summary       |              Filename             |
+-----------------------------------------------------------------------+
|SU2 binary restart                 |restart_flow_databladeVALIDATION_Blade_15.dat|
|                                   |                     (14297.3 MB/s)|
|Paraview                           |volume_flow_databladeVALIDATION_Blade_15.vtu|
|                                   |                     (835.586 MB/s)|
|Paraview surface                   |surface_flowdatabladeVALIDATION_Blade_15.vtu|
|                                   |                     (35.4049 MB/s)|
|SU2 ASCII restart                  |restart_flow_databladeVALIDATION_Blade_15.csv|
|                                   |                     (19.6759 MB/s)|
|CSV file                           |surface_flowdatabladeVALIDATION_Blade_15.csv|
|                                   |                     (19.6252 MB/s)|
+-----------------------------------------------------------------------+
+--------------------------------------+
|  Inner_Iter|   Time(sec)|    rms[Rho]|
+--------------------------------------+
|        1710|  1.1472e-01|   -2.076306|
|        1720|  1.1429e-01|   -2.076823|
|        1730|  1.1385e-01|   -2.076759|
|        1740|  1.1346e-01|   -2.076129|
|        1750|  1.1303e-01|   -2.076631|
+-----------------------------------------------------------------------+
|        File Writing Summary       |              Filename             |
+-----------------------------------------------------------------------+
|SU2 binary restart                 |restart_flow_databladeVALIDATION_Blade_15.dat|
|                                   |                     (12633.8 MB/s)|
|Paraview                           |volume_flow_databladeVALIDATION_Blade_15.vtu|
|                                   |                     (1106.31 MB/s)|
|Paraview surface                   |surface_flowdatabladeVALIDATION_Blade_15.vtu|
|                                   |                     (102.086 MB/s)|
|SU2 ASCII restart                  |restart_flow_databladeVALIDATION_Blade_15.csv|
|                                   |                      (21.052 MB/s)|
|CSV file                           |surface_flowdatabladeVALIDATION_Blade_15.csv|
|                                   |                     (12.9425 MB/s)|
+-----------------------------------------------------------------------+
+--------------------------------------+
|  Inner_Iter|   Time(sec)|    rms[Rho]|
+--------------------------------------+
|        1760|  1.1439e-01|   -2.076567|
|        1770|  1.1405e-01|   -2.076503|
|        1780|  1.1362e-01|   -2.076438|
|        1790|  1.1319e-01|   -2.076373|
|        1800|  1.1276e-01|   -2.076307|
+-----------------------------------------------------------------------+
|        File Writing Summary       |              Filename             |
+-----------------------------------------------------------------------+
|SU2 binary restart                 |restart_flow_databladeVALIDATION_Blade_15.dat|
|                                   |                     (8439.64 MB/s)|
|Paraview                           |volume_flow_databladeVALIDATION_Blade_15.vtu|
|                                   |                     (215.005 MB/s)|
|Paraview surface                   |surface_flowdatabladeVALIDATION_Blade_15.vtu|
|                                   |                     (6.90257 MB/s)|
|SU2 ASCII restart                  |restart_flow_databladeVALIDATION_Blade_15.csv|
|                                   |                     (20.0578 MB/s)|
|CSV file                           |surface_flowdatabladeVALIDATION_Blade_15.csv|
|                                   |                     (18.8044 MB/s)|
+-----------------------------------------------------------------------+
+--------------------------------------+
|  Inner_Iter|   Time(sec)|    rms[Rho]|
+--------------------------------------+
|        1810|  1.1393e-01|   -2.076241|
|        1820|  1.1354e-01|   -2.075650|
|        1830|  1.1312e-01|   -2.075588|
|        1840|  1.1272e-01|   -2.076042|
|        1850|  1.1230e-01|   -2.075975|
+-----------------------------------------------------------------------+
|        File Writing Summary       |              Filename             |
+-----------------------------------------------------------------------+
|SU2 binary restart                 |restart_flow_databladeVALIDATION_Blade_15.dat|
|                                   |                     (12917.6 MB/s)|
|Paraview                           |volume_flow_databladeVALIDATION_Blade_15.vtu|
|                                   |                     (1167.96 MB/s)|
|Paraview surface                   |surface_flowdatabladeVALIDATION_Blade_15.vtu|
|                                   |                     (113.613 MB/s)|
|SU2 ASCII restart                  |restart_flow_databladeVALIDATION_Blade_15.csv|
|                                   |                     (18.8634 MB/s)|
|CSV file                           |surface_flowdatabladeVALIDATION_Blade_15.csv|
|                                   |                     (19.8589 MB/s)|
+-----------------------------------------------------------------------+
+--------------------------------------+
|  Inner_Iter|   Time(sec)|    rms[Rho]|
+--------------------------------------+
|        1860|  1.1346e-01|   -2.075403|
|        1870|  1.1332e-01|   -2.075841|
|        1880|  1.1295e-01|   -2.075278|
|        1890|  1.1256e-01|   -2.075705|
|        1900|  1.1215e-01|   -2.075637|
+-----------------------------------------------------------------------+
|        File Writing Summary       |              Filename             |
+-----------------------------------------------------------------------+
|SU2 binary restart                 |restart_flow_databladeVALIDATION_Blade_15.dat|
|                                   |                     (13675.7 MB/s)|
|Paraview                           |volume_flow_databladeVALIDATION_Blade_15.vtu|
|                                   |                     (977.667 MB/s)|
|Paraview surface                   |surface_flowdatabladeVALIDATION_Blade_15.vtu|
|                                   |                     (75.5116 MB/s)|
|SU2 ASCII restart                  |restart_flow_databladeVALIDATION_Blade_15.csv|
|                                   |                     (20.6205 MB/s)|
|CSV file                           |surface_flowdatabladeVALIDATION_Blade_15.csv|
|                                   |                     (18.9563 MB/s)|
+-----------------------------------------------------------------------+
+--------------------------------------+
|  Inner_Iter|   Time(sec)|    rms[Rho]|
+--------------------------------------+
|        1910|  1.1322e-01|   -2.075087|
|        1920|  1.1282e-01|   -2.075498|
|        1930|  1.1242e-01|   -2.075428|
|        1940|  1.1204e-01|   -2.075358|
|        1950|  1.1167e-01|   -2.075287|
+-----------------------------------------------------------------------+
|        File Writing Summary       |              Filename             |
+-----------------------------------------------------------------------+
|SU2 binary restart                 |restart_flow_databladeVALIDATION_Blade_15.dat|
|                                   |                     (11884.6 MB/s)|
|Paraview                           |volume_flow_databladeVALIDATION_Blade_15.vtu|
|                                   |                     (1076.53 MB/s)|
|Paraview surface                   |surface_flowdatabladeVALIDATION_Blade_15.vtu|
|                                   |                     (94.3991 MB/s)|
|SU2 ASCII restart                  |restart_flow_databladeVALIDATION_Blade_15.csv|
|                                   |                     (20.2238 MB/s)|
|CSV file                           |surface_flowdatabladeVALIDATION_Blade_15.csv|
|                                   |                     (19.9438 MB/s)|
+-----------------------------------------------------------------------+
+--------------------------------------+
|  Inner_Iter|   Time(sec)|    rms[Rho]|
+--------------------------------------+
|        1960|  1.1267e-01|   -2.075216|
|        1970|  1.1229e-01|   -2.075145|
|        1980|  1.1208e-01|   -2.075074|
|        1990|  1.1171e-01|   -2.074563|
|        2000|  1.1135e-01|   -2.074497|
+-----------------------------------------------------------------------+
|        File Writing Summary       |              Filename             |
+-----------------------------------------------------------------------+
|SU2 binary restart                 |restart_flow_databladeVALIDATION_Blade_15.dat|
|                                   |                     (13032.2 MB/s)|
|Paraview                           |volume_flow_databladeVALIDATION_Blade_15.vtu|
|                                   |                     (1120.01 MB/s)|
|Paraview surface                   |surface_flowdatabladeVALIDATION_Blade_15.vtu|
|                                   |                     (104.806 MB/s)|
|SU2 ASCII restart                  |restart_flow_databladeVALIDATION_Blade_15.csv|
|                                   |                     (17.9643 MB/s)|
|CSV file                           |surface_flowdatabladeVALIDATION_Blade_15.csv|
|                                   |                      (17.359 MB/s)|
+-----------------------------------------------------------------------+
+--------------------------------------+
|  Inner_Iter|   Time(sec)|    rms[Rho]|
+--------------------------------------+
|        2010|  1.1254e-01|   -2.074860|
|        2020|  1.1216e-01|   -2.074364|
|        2030|  1.1178e-01|   -2.074717|
|        2040|  1.1141e-01|   -2.074645|
|        2050|  1.1105e-01|   -2.074165|
+-----------------------------------------------------------------------+
|        File Writing Summary       |              Filename             |
+-----------------------------------------------------------------------+
|SU2 binary restart                 |restart_flow_databladeVALIDATION_Blade_15.dat|
|                                   |                     (13114.6 MB/s)|
|Paraview                           |volume_flow_databladeVALIDATION_Blade_15.vtu|
|                                   |                     (1073.45 MB/s)|
|Paraview surface                   |surface_flowdatabladeVALIDATION_Blade_15.vtu|
|                                   |                     (108.897 MB/s)|
|SU2 ASCII restart                  |restart_flow_databladeVALIDATION_Blade_15.csv|
|                                   |                      (19.997 MB/s)|
|CSV file                           |surface_flowdatabladeVALIDATION_Blade_15.csv|
|                                   |                     (20.4753 MB/s)|
+-----------------------------------------------------------------------+
+--------------------------------------+
|  Inner_Iter|   Time(sec)|    rms[Rho]|
+--------------------------------------+
|        2060|  1.1200e-01|   -2.074098|
|        2070|  1.1173e-01|   -2.074430|
|        2080|  1.1157e-01|   -2.074357|
|        2090|  1.1122e-01|   -2.074285|
|        2100|  1.1089e-01|   -2.073829|
+-----------------------------------------------------------------------+
|        File Writing Summary       |              Filename             |
+-----------------------------------------------------------------------+
|SU2 binary restart                 |restart_flow_databladeVALIDATION_Blade_15.dat|
|                                   |                     (13490.8 MB/s)|
|Paraview                           |volume_flow_databladeVALIDATION_Blade_15.vtu|
|                                   |                     (1069.89 MB/s)|
|Paraview surface                   |surface_flowdatabladeVALIDATION_Blade_15.vtu|
|                                   |                     (41.9725 MB/s)|
|SU2 ASCII restart                  |restart_flow_databladeVALIDATION_Blade_15.csv|
|                                   |                     (20.5075 MB/s)|
|CSV file                           |surface_flowdatabladeVALIDATION_Blade_15.csv|
|                                   |                     (19.0869 MB/s)|
+-----------------------------------------------------------------------+
+--------------------------------------+
|  Inner_Iter|   Time(sec)|    rms[Rho]|
+--------------------------------------+
|        2110|  1.1180e-01|   -2.073761|
|        2120|  1.1145e-01|   -2.074067|
|        2130|  1.1113e-01|   -2.073626|
|        2140|  1.1077e-01|   -2.073922|
|        2150|  1.1041e-01|   -2.072960|
+-----------------------------------------------------------------------+
|        File Writing Summary       |              Filename             |
+-----------------------------------------------------------------------+
|SU2 binary restart                 |restart_flow_databladeVALIDATION_Blade_15.dat|
|                                   |                     (10734.4 MB/s)|
|Paraview                           |volume_flow_databladeVALIDATION_Blade_15.vtu|
|                                   |                     (918.914 MB/s)|
|Paraview surface                   |surface_flowdatabladeVALIDATION_Blade_15.vtu|
|                                   |                     (56.5943 MB/s)|
|SU2 ASCII restart                  |restart_flow_databladeVALIDATION_Blade_15.csv|
|                                   |                     (20.0313 MB/s)|
|CSV file                           |surface_flowdatabladeVALIDATION_Blade_15.csv|
|                                   |                     (18.2976 MB/s)|
+-----------------------------------------------------------------------+
+--------------------------------------+
|  Inner_Iter|   Time(sec)|    rms[Rho]|
+--------------------------------------+
|        2160|  1.1136e-01|   -2.073776|
|        2170|  1.1100e-01|   -2.073703|
|        2180|  1.1082e-01|   -2.073286|
|        2190|  1.1059e-01|   -2.073218|
|        2200|  1.1037e-01|   -2.073150|
+-----------------------------------------------------------------------+
|        File Writing Summary       |              Filename             |
+-----------------------------------------------------------------------+
|SU2 binary restart                 |restart_flow_databladeVALIDATION_Blade_15.dat|
|                                   |                     (9586.67 MB/s)|
|Paraview                           |volume_flow_databladeVALIDATION_Blade_15.vtu|
|                                   |                      (745.02 MB/s)|
|Paraview surface                   |surface_flowdatabladeVALIDATION_Blade_15.vtu|
|                                   |                     (52.7321 MB/s)|
|SU2 ASCII restart                  |restart_flow_databladeVALIDATION_Blade_15.csv|
|                                   |                     (19.9296 MB/s)|
|CSV file                           |surface_flowdatabladeVALIDATION_Blade_15.csv|
|                                   |                     (18.0472 MB/s)|
+-----------------------------------------------------------------------+
+--------------------------------------+
|  Inner_Iter|   Time(sec)|    rms[Rho]|
+--------------------------------------+
|        2210|  1.1135e-01|   -2.073082|
|        2220|  1.1101e-01|   -2.073338|
|        2230|  1.1068e-01|   -2.072947|
|        2240|  1.1034e-01|   -2.072394|
|        2250|  1.1003e-01|   -2.073121|
+-----------------------------------------------------------------------+
|        File Writing Summary       |              Filename             |
+-----------------------------------------------------------------------+
|SU2 binary restart                 |restart_flow_databladeVALIDATION_Blade_15.dat|
|                                   |                     (10169.8 MB/s)|
|Paraview                           |volume_flow_databladeVALIDATION_Blade_15.vtu|
|                                   |                     (906.832 MB/s)|
|Paraview surface                   |surface_flowdatabladeVALIDATION_Blade_15.vtu|
|                                   |                     (88.5987 MB/s)|
|SU2 ASCII restart                  |restart_flow_databladeVALIDATION_Blade_15.csv|
|                                   |                      (20.423 MB/s)|
|CSV file                           |surface_flowdatabladeVALIDATION_Blade_15.csv|
|                                   |                     (18.8644 MB/s)|
+-----------------------------------------------------------------------+
+--------------------------------------+
|  Inner_Iter|   Time(sec)|    rms[Rho]|
+--------------------------------------+
|        2260|  1.1090e-01|   -2.072745|
|        2270|  1.1063e-01|   -2.072678|
|        2280|  1.1044e-01|   -2.072905|
|        2290|  1.1011e-01|   -2.072544|
|        2300|  1.0978e-01|   -2.072021|
+-----------------------------------------------------------------------+
|        File Writing Summary       |              Filename             |
+-----------------------------------------------------------------------+
|SU2 binary restart                 |restart_flow_databladeVALIDATION_Blade_15.dat|
|                                   |                     (12885.3 MB/s)|
|Paraview                           |volume_flow_databladeVALIDATION_Blade_15.vtu|
|                                   |                     (986.358 MB/s)|
|Paraview surface                   |surface_flowdatabladeVALIDATION_Blade_15.vtu|
|                                   |                     (97.1768 MB/s)|
|SU2 ASCII restart                  |restart_flow_databladeVALIDATION_Blade_15.csv|
|                                   |                     (21.1382 MB/s)|
|CSV file                           |surface_flowdatabladeVALIDATION_Blade_15.csv|
|                                   |                     (20.6086 MB/s)|
+-----------------------------------------------------------------------+
+--------------------------------------+
|  Inner_Iter|   Time(sec)|    rms[Rho]|
+--------------------------------------+
|        2310|  1.1058e-01|   -2.072407|
|        2320|  1.1025e-01|   -2.072614|
|        2330|  1.0995e-01|   -2.072271|
|        2340|  1.0965e-01|   -2.072203|
|        2350|  1.0935e-01|   -2.072135|
+-----------------------------------------------------------------------+
|        File Writing Summary       |              Filename             |
+-----------------------------------------------------------------------+
|SU2 binary restart                 |restart_flow_databladeVALIDATION_Blade_15.dat|
|                                   |                     (10652.7 MB/s)|
|Paraview                           |volume_flow_databladeVALIDATION_Blade_15.vtu|
[...]
|SU2 binary restart                 |restart_flow_databladeVALIDATION_Blade_15.dat|
|                                   |                     (12236.5 MB/s)|
|Paraview                           |volume_flow_databladeVALIDATION_Blade_15.vtu|
|                                   |                     (851.561 MB/s)|
|Paraview surface                   |surface_flowdatabladeVALIDATION_Blade_15.vtu|
|                                   |                      (86.809 MB/s)|
|SU2 ASCII restart                  |restart_flow_databladeVALIDATION_Blade_15.csv|
|                                   |                     (20.2806 MB/s)|
|CSV file                           |surface_flowdatabladeVALIDATION_Blade_15.csv|
|                                   |                     (17.0697 MB/s)|
+-----------------------------------------------------------------------+
+--------------------------------------+
|  Inner_Iter|   Time(sec)|    rms[Rho]|
+--------------------------------------+
|        6410|  9.6359e-02|   -2.067005|
|        6420|  9.6280e-02|   -2.067163|
|        6430|  9.6203e-02|   -2.068512|
|        6440|  9.6113e-02|   -2.068658|
|        6450|  9.6022e-02|   -2.068804|
+-----------------------------------------------------------------------+
|        File Writing Summary       |              Filename             |
+-----------------------------------------------------------------------+
|SU2 binary restart                 |restart_flow_databladeVALIDATION_Blade_15.dat|
|                                   |                     (13252.2 MB/s)|
|Paraview                           |volume_flow_databladeVALIDATION_Blade_15.vtu|
|                                   |                     (1041.43 MB/s)|
|Paraview surface                   |surface_flowdatabladeVALIDATION_Blade_15.vtu|
|                                   |                     (126.814 MB/s)|
|SU2 ASCII restart                  |restart_flow_databladeVALIDATION_Blade_15.csv|
|                                   |                     (20.6321 MB/s)|
|CSV file                           |surface_flowdatabladeVALIDATION_Blade_15.csv|
|                                   |                     (21.4134 MB/s)|
+-----------------------------------------------------------------------+
+--------------------------------------+
|  Inner_Iter|   Time(sec)|    rms[Rho]|
+--------------------------------------+
|        6460|  9.6342e-02|   -2.068950|
|        6470|  9.6253e-02|   -2.069096|
|        6480|  9.6164e-02|   -2.069241|
|        6490|  9.6076e-02|   -2.068256|
|        6500|  9.5985e-02|   -2.068410|
+-----------------------------------------------------------------------+
|        File Writing Summary       |              Filename             |
+-----------------------------------------------------------------------+
|SU2 binary restart                 |restart_flow_databladeVALIDATION_Blade_15.dat|
|                                   |                     (9318.53 MB/s)|
|Paraview                           |volume_flow_databladeVALIDATION_Blade_15.vtu|
|                                   |                     (848.434 MB/s)|
|Paraview surface                   |surface_flowdatabladeVALIDATION_Blade_15.vtu|
|                                   |                     (87.7346 MB/s)|
|SU2 ASCII restart                  |restart_flow_databladeVALIDATION_Blade_15.csv|
|                                   |                     (20.5672 MB/s)|
|CSV file                           |surface_flowdatabladeVALIDATION_Blade_15.csv|
|                                   |                     (18.6267 MB/s)|
+-----------------------------------------------------------------------+
+--------------------------------------+
|  Inner_Iter|   Time(sec)|    rms[Rho]|
+--------------------------------------+
|        6510|  9.6315e-02|   -2.069676|
|        6520|  9.6236e-02|   -2.068720|
|        6530|  9.6185e-02|   -2.069964|
|        6540|  9.6109e-02|   -2.069029|
|        6550|  9.6018e-02|   -2.069183|
+-----------------------------------------------------------------------+
|        File Writing Summary       |              Filename             |
+-----------------------------------------------------------------------+
|SU2 binary restart                 |restart_flow_databladeVALIDATION_Blade_15.dat|
|                                   |                       (11047 MB/s)|
|Paraview                           |volume_flow_databladeVALIDATION_Blade_15.vtu|
|                                   |                     (1113.61 MB/s)|
|Paraview surface                   |surface_flowdatabladeVALIDATION_Blade_15.vtu|
|                                   |                     (100.214 MB/s)|
|SU2 ASCII restart                  |restart_flow_databladeVALIDATION_Blade_15.csv|
|                                   |                     (20.9519 MB/s)|
|CSV file                           |surface_flowdatabladeVALIDATION_Blade_15.csv|
|                                   |                     (18.9641 MB/s)|
+-----------------------------------------------------------------------+
+--------------------------------------+
|  Inner_Iter|   Time(sec)|    rms[Rho]|
+--------------------------------------+
|        6560|  9.6330e-02|   -2.070395|
|        6570|  9.6245e-02|   -2.070538|
|        6580|  9.6155e-02|   -2.070681|
|        6590|  9.6082e-02|   -2.070824|
|        6600|  9.5999e-02|   -2.069951|
+-----------------------------------------------------------------------+
|        File Writing Summary       |              Filename             |
+-----------------------------------------------------------------------+
|SU2 binary restart                 |restart_flow_databladeVALIDATION_Blade_15.dat|
|                                   |                     (11701.3 MB/s)|
|Paraview                           |volume_flow_databladeVALIDATION_Blade_15.vtu|
|                                   |                     (1034.11 MB/s)|
|Paraview surface                   |surface_flowdatabladeVALIDATION_Blade_15.vtu|
|                                   |                     (100.603 MB/s)|
|SU2 ASCII restart                  |restart_flow_databladeVALIDATION_Blade_15.csv|
|                                   |                     (20.9046 MB/s)|
|CSV file                           |surface_flowdatabladeVALIDATION_Blade_15.csv|
|                                   |                     (19.6862 MB/s)|
+-----------------------------------------------------------------------+
+--------------------------------------+
|  Inner_Iter|   Time(sec)|    rms[Rho]|
+--------------------------------------+
|        6610|  9.6303e-02|   -2.070103|
|        6620|  9.6209e-02|   -2.071250|
|        6630|  9.6115e-02|   -2.070408|
|        6640|  9.6023e-02|   -2.071533|
|        6650|  9.5931e-02|   -2.070712|
+-----------------------------------------------------------------------+
|        File Writing Summary       |              Filename             |
+-----------------------------------------------------------------------+
|SU2 binary restart                 |restart_flow_databladeVALIDATION_Blade_15.dat|
|                                   |                     (12894.5 MB/s)|
|Paraview                           |volume_flow_databladeVALIDATION_Blade_15.vtu|
|                                   |                     (1101.36 MB/s)|
|Paraview surface                   |surface_flowdatabladeVALIDATION_Blade_15.vtu|
|                                   |                     (86.4263 MB/s)|
|SU2 ASCII restart                  |restart_flow_databladeVALIDATION_Blade_15.csv|
|                                   |                     (21.4605 MB/s)|
|CSV file                           |surface_flowdatabladeVALIDATION_Blade_15.csv|
|                                   |                     (19.3799 MB/s)|
+-----------------------------------------------------------------------+
+--------------------------------------+
|  Inner_Iter|   Time(sec)|    rms[Rho]|
+--------------------------------------+
|        6660|  9.6224e-02|   -2.070864|
|        6670|  9.6131e-02|   -2.071016|
|        6680|  9.6041e-02|   -2.071168|
|        6690|  9.5951e-02|   -2.071319|
|        6700|  9.5859e-02|   -2.071470|
+-----------------------------------------------------------------------+
|        File Writing Summary       |              Filename             |
+-----------------------------------------------------------------------+
|SU2 binary restart                 |restart_flow_databladeVALIDATION_Blade_15.dat|
|                                   |                       (13576 MB/s)|
|Paraview                           |volume_flow_databladeVALIDATION_Blade_15.vtu|
|                                   |                     (1139.04 MB/s)|
|Paraview surface                   |surface_flowdatabladeVALIDATION_Blade_15.vtu|
|                                   |                     (105.361 MB/s)|
|SU2 ASCII restart                  |restart_flow_databladeVALIDATION_Blade_15.csv|
|                                   |                     (21.3567 MB/s)|
|CSV file                           |surface_flowdatabladeVALIDATION_Blade_15.csv|
|                                   |                     (19.3872 MB/s)|
+-----------------------------------------------------------------------+
+--------------------------------------+
|  Inner_Iter|   Time(sec)|    rms[Rho]|
+--------------------------------------+
|        6710|  9.6150e-02|   -2.071621|
|        6720|  9.6057e-02|   -2.071771|
|        6730|  9.5964e-02|   -2.071922|
|        6740|  9.5872e-02|   -2.072938|
|        6750|  9.5780e-02|   -2.072222|
+-----------------------------------------------------------------------+
|        File Writing Summary       |              Filename             |
+-----------------------------------------------------------------------+
|SU2 binary restart                 |restart_flow_databladeVALIDATION_Blade_15.dat|
|                                   |                       (11262 MB/s)|
|Paraview                           |volume_flow_databladeVALIDATION_Blade_15.vtu|
|                                   |                     (1081.54 MB/s)|
|Paraview surface                   |surface_flowdatabladeVALIDATION_Blade_15.vtu|
|                                   |                     (97.0517 MB/s)|
|SU2 ASCII restart                  |restart_flow_databladeVALIDATION_Blade_15.csv|
|                                   |                     (21.2889 MB/s)|
|CSV file                           |surface_flowdatabladeVALIDATION_Blade_15.csv|
|                                   |                     (19.4064 MB/s)|
+-----------------------------------------------------------------------+
+--------------------------------------+
|  Inner_Iter|   Time(sec)|    rms[Rho]|
+--------------------------------------+
|        6760|  9.6071e-02|   -2.072372|
|        6770|  9.5979e-02|   -2.073355|
|        6780|  9.5888e-02|   -2.072672|
|        6790|  9.5796e-02|   -2.072821|
|        6800|  9.5705e-02|   -2.072971|
+-----------------------------------------------------------------------+
|        File Writing Summary       |              Filename             |
+-----------------------------------------------------------------------+
|SU2 binary restart                 |restart_flow_databladeVALIDATION_Blade_15.dat|
|                                   |                     (12039.9 MB/s)|
|Paraview                           |volume_flow_databladeVALIDATION_Blade_15.vtu|
|                                   |                     (1144.57 MB/s)|
|Paraview surface                   |surface_flowdatabladeVALIDATION_Blade_15.vtu|
|                                   |                     (122.391 MB/s)|
|SU2 ASCII restart                  |restart_flow_databladeVALIDATION_Blade_15.csv|
|                                   |                     (21.2653 MB/s)|
|CSV file                           |surface_flowdatabladeVALIDATION_Blade_15.csv|
|                                   |                     (21.4894 MB/s)|
+-----------------------------------------------------------------------+
+--------------------------------------+
|  Inner_Iter|   Time(sec)|    rms[Rho]|
+--------------------------------------+
|        6810|  9.5999e-02|   -2.073912|
|        6820|  9.5914e-02|   -2.073270|
|        6830|  9.5827e-02|   -2.074190|
|        6840|  9.5738e-02|   -2.073570|
|        6850|  9.5655e-02|   -2.073719|
+-----------------------------------------------------------------------+
|        File Writing Summary       |              Filename             |
+-----------------------------------------------------------------------+
|SU2 binary restart                 |restart_flow_databladeVALIDATION_Blade_15.dat|
|                                   |                     (13071.8 MB/s)|
|Paraview                           |volume_flow_databladeVALIDATION_Blade_15.vtu|
|                                   |                     (1173.71 MB/s)|
|Paraview surface                   |surface_flowdatabladeVALIDATION_Blade_15.vtu|
|                                   |                     (95.1029 MB/s)|
|SU2 ASCII restart                  |restart_flow_databladeVALIDATION_Blade_15.csv|
|                                   |                     (21.7066 MB/s)|
|CSV file                           |surface_flowdatabladeVALIDATION_Blade_15.csv|
|                                   |                     (19.1232 MB/s)|
+-----------------------------------------------------------------------+
+--------------------------------------+
|  Inner_Iter|   Time(sec)|    rms[Rho]|
+--------------------------------------+
|        6860|  9.5942e-02|   -2.074639|
|        6870|  9.5866e-02|   -2.074863|
|        6880|  9.5809e-02|   -2.080394|
|        6890|  9.5794e-02|   -2.057059|
|        6900|  9.5779e-02|   -2.087947|
+-----------------------------------------------------------------------+
|        File Writing Summary       |              Filename             |
+-----------------------------------------------------------------------+
|SU2 binary restart                 |restart_flow_databladeVALIDATION_Blade_15.dat|
|                                   |                       (10617 MB/s)|
|Paraview                           |volume_flow_databladeVALIDATION_Blade_15.vtu|
|                                   |                     (1018.02 MB/s)|
|Paraview surface                   |surface_flowdatabladeVALIDATION_Blade_15.vtu|
|                                   |                     (81.1628 MB/s)|
|SU2 ASCII restart                  |restart_flow_databladeVALIDATION_Blade_15.csv|
|                                   |                      (20.187 MB/s)|
|CSV file                           |surface_flowdatabladeVALIDATION_Blade_15.csv|
|                                   |                     (21.8543 MB/s)|
+-----------------------------------------------------------------------+
+--------------------------------------+
|  Inner_Iter|   Time(sec)|    rms[Rho]|
+--------------------------------------+
|        6910|  9.6153e-02|   -2.114709|
|        6920|  9.6134e-02|   -2.134890|
|        6930|  9.6120e-02|   -2.158327|
|        6940|  9.6089e-02|   -2.157924|
|        6950|  9.6059e-02|   -2.183381|
+-----------------------------------------------------------------------+
|        File Writing Summary       |              Filename             |
+-----------------------------------------------------------------------+
|SU2 binary restart                 |restart_flow_databladeVALIDATION_Blade_15.dat|
|                                   |                     (11807.7 MB/s)|
|Paraview                           |volume_flow_databladeVALIDATION_Blade_15.vtu|
|                                   |                     (1128.23 MB/s)|
|Paraview surface                   |surface_flowdatabladeVALIDATION_Blade_15.vtu|
|                                   |                     (104.244 MB/s)|
|SU2 ASCII restart                  |restart_flow_databladeVALIDATION_Blade_15.csv|
|                                   |                     (20.7305 MB/s)|
|CSV file                           |surface_flowdatabladeVALIDATION_Blade_15.csv|
|                                   |                     (18.7651 MB/s)|
+-----------------------------------------------------------------------+
+--------------------------------------+
|  Inner_Iter|   Time(sec)|    rms[Rho]|
+--------------------------------------+
|        6960|  9.6413e-02|   -2.192390|
|        6970|  9.6395e-02|   -2.199965|
|        6980|  9.6379e-02|   -2.181374|
|        6990|  9.6368e-02|   -2.164573|
|        6999|  9.6359e-02|   -2.174697|

----------------------------- Solver Exit -------------------------------

Maximum number of iterations reached (ITER = 7000) before convergence.
+-----------------------------------------------------------------------+
|      Convergence Field     |     Value    |   Criterion  |  Converged |
+-----------------------------------------------------------------------+
|                    rms[Rho]|       -2.1747|          < -7|          No|
+-----------------------------------------------------------------------+
-------------------------------------------------------------------------
+-----------------------------------------------------------------------+
|        File Writing Summary       |              Filename             |
+-----------------------------------------------------------------------+
|SU2 binary restart                 |restart_flow_databladeVALIDATION_Blade_15.dat|
|                                   |                       (10928 MB/s)|
|Paraview                           |volume_flow_databladeVALIDATION_Blade_15.vtu|
|                                   |                     (807.436 MB/s)|
|Paraview surface                   |surface_flowdatabladeVALIDATION_Blade_15.vtu|
|                                   |                     (94.6921 MB/s)|
|SU2 ASCII restart                  |restart_flow_databladeVALIDATION_Blade_15.csv|
|                                   |                     (21.3126 MB/s)|
|CSV file                           |surface_flowdatabladeVALIDATION_Blade_15.csv|
|                                   |                     (20.7323 MB/s)|
+-----------------------------------------------------------------------+

--------------------------- Finalizing Solver ---------------------------
Deleted CNumerics container.
Deleted CIntegration container.
Deleted CSolver container.
Deleted CIteration container.
Deleted CInterface container.
Deleted CGeometry container.
Deleted CFreeFormDefBox class.
Deleted CSurfaceMovement class.
Deleted CVolumetricMovement class.
Deleted CConfig container.
Deleted nInst container.
Deleted COutput class.
-------------------------------------------------------------------------


-------------------------- Performance Summary --------------------------
Simulation totals:
   Wall-clock time (hrs):    0.188244 |            Core-hrs:     2.25892
                   Cores:          12 |          DOFs/point:           5
             Points/core:     5695.75 |   Ghost points/core:     152.167
 Ghost/Owned Point Ratio:   0.0267158 | 

Preprocessing phase:
       Preproc. Time (s):    0.546326 |   Preproc. Time (%):   0.0806175

Compute phase:
        Compute Time (s):     674.518 |    Compute Time (%):     99.5338
         Iteration count:        7000 |         Avg. s/iter:   0.0963597
     Core-s/iter/Mpoints:     16.4776 |           Mpoints/s:    0.728261

Output phase:
         Output Time (s):     2.61311 |     Output Time (%):    0.385597
            Output count:           1 |       Avg. s/output:     2.61311
 Restart Aggr. BW (MB/s): 1.73718e+06 |           MB/s/core:      144765
-------------------------------------------------------------------------


------------------------- Exit Success (SU2_CFD) ------------------------

