
-------------------------------------------------------------------------
|    ___ _   _ ___                                                      |
|   / __| | | |_  )   Release 8.0.1 "Harrier"                           |
|   \__ \ |_| |/ /                                                      |
|   |___/\___//___|   Suite (Computational Fluid Dynamics Code)         |
|                                                                       |
-------------------------------------------------------------------------
| SU2 Project Website: https://su2code.github.io                        |
|                                                                       |
| The SU2 Project is maintained by the SU2 Foundation                   |
| (http://su2foundation.org)                                            |
-------------------------------------------------------------------------
| Copyright 2012-2024, SU2 Contributors                                 |
|                                                                       |
| SU2 is free software; you can redistribute it and/or                  |
| modify it under the terms of the GNU Lesser General Public            |
| License as published by the Free Software Foundation; either          |
| version 2.1 of the License, or (at your option) any later version.    |
|                                                                       |
| SU2 is distributed in the hope that it will be useful,                |
| but WITHOUT ANY WARRANTY; without even the implied warranty of        |
| MERCHANTABILITY or FITNESS FOR A PARTICULAR PURPOSE. See the GNU      |
| Lesser General Public License for more details.                       |
|                                                                       |
| You should have received a copy of the GNU Lesser General Public      |
| License along with SU2. If not, see <http://www.gnu.org/licenses/>.   |
-------------------------------------------------------------------------

Parsing config file for zone 0

----------------- Physical Case Definition ( Zone 0 ) -------------------
Compressible RANS equations.
Turbulence model: Spalart-Allmaras-noft2-BCM
Hybrid RANS/LES: No Hybrid RANS/LES
Mach number: 0.5.
Angle of attack (AoA): -40 deg, and angle of sideslip (AoS): 0 deg.
Reynolds number: 600000. Reference length 1.0014.
No restart solution, use the values at infinity (freestream).
Dimensional simulation.
The reference area will be computed using y(2D) or z(3D) projection.
The semi-span will be computed using the max y(3D) value.
The reference length is 1.0014 m.
Reference origin for moment evaluation is (0, 0, 0).
Surface(s) where the force coefficients are evaluated: blade1.

Surface(s) plotted in the output file: blade1.
Surface(s) to be analyzed in detail: inlet, outlet, blade1.
Input mesh file name: cascade2D_databladeVALIDATION_Blade_14.su2

--------------- Space Numerical Integration ( Zone 0 ) ------------------
Jameson-Schmidt-Turkel scheme (2nd order in space) for the flow inviscid terms.
JST viscous coefficients (2nd & 4th): 0.5, 0.02.
The method includes a grid stretching correction (p = 0.3).
Scalar upwind solver for the turbulence model.
First order integration in space.
Average of gradients with correction (viscous flow terms).
Average of gradients with correction (viscous turbulence terms).
Gradient for upwind reconstruction: inverse-distance weighted Least-Squares.
Gradient for viscous and source terms: inverse-distance weighted Least-Squares.

--------------- Time Numerical Integration  ( Zone 0 ) ------------------
Local time stepping (steady state simulation).
Euler implicit method for the flow equations.
FGMRES is used for solving the linear system.
Using a LU-SGS preconditioning.
Convergence criteria of the linear solver: 0.0001.
Max number of linear iterations: 10.
V Multigrid Cycle, with 3 multigrid levels.
Damping factor for the residual restriction: 0.75.
Damping factor for the correction prolongation: 0.75.
CFL adaptation. Factor down: 0.1, factor up: 1.2,
                lower limit: 0.1, upper limit: 100,
                acceptable linear residual: 0.001.
+-------------------------------------------+
|  MG Level| Presmooth|PostSmooth|CorrectSmo|
+-------------------------------------------+
|         0|         1|         0|         1|
|         1|         2|         2|         2|
|         2|         3|         3|         3|
|         3|         3|         0|         0|
+-------------------------------------------+
Courant-Friedrichs-Lewy number:       12
Euler implicit time integration for the turbulence model.

------------------ Convergence Criteria  ( Zone 0 ) ---------------------
Maximum number of solver subiterations: 7000.
Begin convergence monitoring at iteration 500.
Residual minimum value: 1e-7.
Cauchy series min. value: 1e-10.
Number of Cauchy elements: 100.
Begin windowed time average at iteration 0.

-------------------- Output Information ( Zone 0 ) ----------------------
File writing frequency: 
+------------------------------------+
|                     File| Frequency|
+------------------------------------+
|                  RESTART|        50|
|                 PARAVIEW|        50|
|         SURFACE_PARAVIEW|        50|
|                      CSV|        50|
|              SURFACE_CSV|        50|
+------------------------------------+
Writing the convergence history file every 1 inner iterations.
Writing the screen convergence history every 10 inner iterations.
The tabular file format is CSV (.csv).
Convergence history file name: history_databladeVALIDATION_Blade_14.
Forces breakdown file name: forces_breakdown.dat.
Surface file name: surface_flowdatabladeVALIDATION_Blade_14.
Volume file name: volume_flow_databladeVALIDATION_Blade_14.
Restart file name: restart_flow_databladeVALIDATION_Blade_14.dat.

------------- Config File Boundary Information ( Zone 0 ) ---------------
+-----------------------------------------------------------------------+
|                        Marker Type|                        Marker Name|
+-----------------------------------------------------------------------+
|                  Periodic boundary|               symmetricWallsBOTTOM|
|                                   |                  symmetricWallsTOP|
+-----------------------------------------------------------------------+
|                     Inlet boundary|                              inlet|
+-----------------------------------------------------------------------+
|                    Outlet boundary|                             outlet|
+-----------------------------------------------------------------------+
|                     Heat flux wall|                             blade1|
|                                   |                             blade2|
+-----------------------------------------------------------------------+

-------------------- Output Preprocessing ( Zone 0 ) --------------------
  Info: Ignoring the following screen output fields:
  LINSOL_ITER_TRANS, LINSOL_RESIDUAL_TRANS
Screen output fields: INNER_ITER, WALL_TIME, RMS_DENSITY
  Info: Ignoring the following history output groups:
  RMS_TKE, RMS_DISSIPATION
History output group(s): INNER_ITER, WALL_TIME, RMS_DENSITY, RMS_MOMENTUM-X, RMS_ENERGY, LINSOL, CFL_NUMBER, FLOW_COEFF_SURF, AERO_COEFF_SURF
Convergence field(s): RMS_DENSITY
Warning: No (valid) fields chosen for time convergence monitoring. Time convergence monitoring inactive.
Volume output fields: COORDINATES, SOLUTION, PRIMITIVE, RESIDUAL, TIMESTEP, MESH_QUALITY, VORTEX_IDENTIFICATION

------------------- Geometry Preprocessing ( Zone 0 ) -------------------
Two dimensional problem.
61421 grid points before partitioning.
92327 volume elements before partitioning.
5 surface markers.
26 boundary elements in index 0 (Marker = inlet).
383 boundary elements in index 1 (Marker = symmetricWallsBOTTOM).
383 boundary elements in index 2 (Marker = symmetricWallsTOP).
73 boundary elements in index 3 (Marker = outlet).
1186 boundary elements in index 4 (Marker = blade1).
Executing the partitioning functions.
Building the graph adjacency structure.
Calling ParMETIS... graph partitioning complete (1373 edge cuts).
Distributing ParMETIS coloring.
Rebalancing vertices.
Rebalancing volume element connectivity.
Rebalancing markers and surface elements.
63130 vertices including ghost points. 
93690 interior elements including halo cells. 
64904 triangles.
28786 quadrilaterals.
Establishing MPI communication patterns.
Setting point connectivity.
Renumbering points (Reverse Cuthill McKee Ordering).
Recomputing point connectivity.
Setting element connectivity.
Checking the numerical grid orientation.
All volume elements are correctly orientend.
There has been a re-orientation of 1012 LINE surface elements.
Identifying edges and vertices.
Setting the control volume structure.
Area of the computational grid: 3.35548.
Searching for the closest normal neighbors to the surfaces.
Storing a mapping from global to local point index.
Compute the surface curvature.
Max K: 140.149. Mean K: 3.89058. Standard deviation K: 13.9016.
Checking for periodicity.
WARNING: Periodicity has been detected. Disabling multigrid. 
Computing mesh quality statistics for the dual control volumes.
+--------------------------------------------------------------+
|           Mesh Quality Metric|        Minimum|        Maximum|
+--------------------------------------------------------------+
|    Orthogonality Angle (deg.)|        46.0807|             90|
|     CV Face Area Aspect Ratio|        1.00011|        290.215|
|           CV Sub-Volume Ratio|              1|        24.6631|
+--------------------------------------------------------------+
Finding max control volume width.
Communicating number of neighbors.
Reference length = 1.02127 m.
Wetted area = 2.9512 m.
Area projection in the x-plane = 0.896401 m, y-plane = 1.02127 m.
Max. coordinate in the x-direction = 1.01342 m, y-direction = 0.578706 m.
Min. coordinate in the x-direction = -0.00787529 m, y-direction = -0.300564 m.
Matching the periodic boundary points for marker pair 1.
 Matched 768 points with a max distance of: 9.86351e-14.
Computing wall distances.

-------------------- Solver Preprocessing ( Zone 0 ) --------------------
Viscous flow: Computing pressure using the ideal gas law
based on the free-stream temperature and a density computed
from the Reynolds number.
Force coefficients computed using free-stream values.

-- Models:
+------------------------------------------------------------------------------+
|          Viscosity Model|        Conductivity Model|              Fluid Model|
+------------------------------------------------------------------------------+
|               SUTHERLAND|          CONSTANT_PRANDTL|                IDEAL_GAS|
+------------------------------------------------------------------------------+
-- Fluid properties:
+------------------------------------------------------------------------------+
|                  Name|    Dim. value|    Ref. value|      Unit|Non-dim. value|
+------------------------------------------------------------------------------+
|        Ref. Viscosity|     1.716e-05|             1|   N.s/m^2|     1.716e-05|
|      Sutherland Temp.|        273.15|             1|         K|        273.15|
|     Sutherland Const.|         110.4|             1|         K|         110.4|
+------------------------------------------------------------------------------+
|        Prandtl (Lam.)|             -|             -|         -|          0.72|
|       Prandtl (Turb.)|             -|             -|         -|           0.9|
+------------------------------------------------------------------------------+
|          Gas Constant|       287.058|             1|  N.m/kg.K|       287.058|
|      Spec. Heat Ratio|             -|             -|         -|           1.4|
+------------------------------------------------------------------------------+
-- Initial and free-stream conditions:
+------------------------------------------------------------------------------+
|                  Name|    Dim. value|    Ref. value|      Unit|Non-dim. value|
+------------------------------------------------------------------------------+
|       Static Pressure|       5486.12|             1|        Pa|       5486.12|
|               Density|     0.0637052|             1|    kg/m^3|     0.0637052|
|           Temperature|           300|             1|         K|           300|
|          Total Energy|        230364|             1|   m^2/s^2|        230364|
|            Velocity-X|       132.994|             1|       m/s|       132.994|
|            Velocity-Y|      -111.596|             1|       m/s|      -111.596|
|    Velocity Magnitude|       173.612|             1|       m/s|       173.612|
+------------------------------------------------------------------------------+
|             Viscosity|   1.84592e-05|             1|   N.s/m^2|   1.84592e-05|
|          Conductivity|             -|             1|   W/m^2.K|             -|
|     Turb. Kin. Energy|       55.3843|             1|   m^2/s^2|       55.3843|
|     Spec. Dissipation|   1.91139e+06|             1|       1/s|   1.91139e+06|
+------------------------------------------------------------------------------+
|           Mach Number|             -|             -|         -|           0.5|
|       Reynolds Number|             -|             -|         -|        600000|
+------------------------------------------------------------------------------+
Initialize Jacobian structure (Navier-Stokes). MG level: 0.
Initialize Jacobian structure (SA model).

------------------- Numerics Preprocessing ( Zone 0 ) -------------------

----------------- Integration Preprocessing ( Zone 0 ) ------------------

------------------- Iteration Preprocessing ( Zone 0 ) ------------------
Euler/Navier-Stokes/RANS fluid iteration.

------------------------------ Begin Solver -----------------------------

Simulation Run using the Single-zone Driver
WARNING: SU2 was not compiled for an AVX-capable architecture. Performance could be better,
         see https://su2code.github.io/docs_v7/Build-SU2-Linux-MacOS/#compiler-optimizations
+--------------------------------------+
|  Inner_Iter|   Time(sec)|    rms[Rho]|
+--------------------------------------+
|           0|  1.0016e-01|   -2.477445|
|          10|  8.7821e-02|   -3.118848|
|          20|  8.7669e-02|   -2.910467|
|          30|  8.5036e-02|   -2.955058|
|          40|  9.2923e-02|   -2.818860|
|          50|  9.6545e-02|   -3.050875|
+-----------------------------------------------------------------------+
|        File Writing Summary       |              Filename             |
+-----------------------------------------------------------------------+
|SU2 binary restart                 |restart_flow_databladeVALIDATION_Blade_14.dat|
|                                   |                     (4091.79 MB/s)|
|Paraview                           |volume_flow_databladeVALIDATION_Blade_14.vtu|
|                                   |                     (355.234 MB/s)|
|Paraview surface                   |surface_flowdatabladeVALIDATION_Blade_14.vtu|
|                                   |                     (14.2403 MB/s)|
|SU2 ASCII restart                  |restart_flow_databladeVALIDATION_Blade_14.csv|
|                                   |                     (14.5102 MB/s)|
|CSV file                           |surface_flowdatabladeVALIDATION_Blade_14.csv|
|                                   |                     (16.2613 MB/s)|
+-----------------------------------------------------------------------+
+--------------------------------------+
|  Inner_Iter|   Time(sec)|    rms[Rho]|
+--------------------------------------+
|          60|  1.5617e-01|   -3.097230|
|          70|  1.4924e-01|   -3.144992|
|          80|  1.4446e-01|   -3.051556|
|          90|  1.4199e-01|   -2.893130|
|         100|  1.3567e-01|   -3.054854|
+-----------------------------------------------------------------------+
|        File Writing Summary       |              Filename             |
+-----------------------------------------------------------------------+
|SU2 binary restart                 |restart_flow_databladeVALIDATION_Blade_14.dat|
|                                   |                     (7836.42 MB/s)|
|Paraview                           |volume_flow_databladeVALIDATION_Blade_14.vtu|
|                                   |                     (829.017 MB/s)|
|Paraview surface                   |surface_flowdatabladeVALIDATION_Blade_14.vtu|
|                                   |                     (57.8019 MB/s)|
|SU2 ASCII restart                  |restart_flow_databladeVALIDATION_Blade_14.csv|
|                                   |                     (19.7432 MB/s)|
|CSV file                           |surface_flowdatabladeVALIDATION_Blade_14.csv|
|                                   |                     (18.2326 MB/s)|
+-----------------------------------------------------------------------+
+--------------------------------------+
|  Inner_Iter|   Time(sec)|    rms[Rho]|
+--------------------------------------+
|         110|  1.5750e-01|   -3.017682|
|         120|  1.5282e-01|   -3.039144|
|         130|  1.4669e-01|   -3.134791|
|         140|  1.4196e-01|   -3.155311|
|         150|  1.3835e-01|   -3.116098|
+-----------------------------------------------------------------------+
|        File Writing Summary       |              Filename             |
+-----------------------------------------------------------------------+
|SU2 binary restart                 |restart_flow_databladeVALIDATION_Blade_14.dat|
|                                   |                     (8137.83 MB/s)|
|Paraview                           |volume_flow_databladeVALIDATION_Blade_14.vtu|
|                                   |                     (690.538 MB/s)|
|Paraview surface                   |surface_flowdatabladeVALIDATION_Blade_14.vtu|
|                                   |                     (46.5381 MB/s)|
|SU2 ASCII restart                  |restart_flow_databladeVALIDATION_Blade_14.csv|
|                                   |                     (19.9569 MB/s)|
|CSV file                           |surface_flowdatabladeVALIDATION_Blade_14.csv|
|                                   |                     (20.3565 MB/s)|
+-----------------------------------------------------------------------+
+--------------------------------------+
|  Inner_Iter|   Time(sec)|    rms[Rho]|
+--------------------------------------+
|         160|  1.5010e-01|   -3.220860|
|         170|  1.4543e-01|   -3.307881|
|         180|  1.4153e-01|   -3.271762|
|         190|  1.3897e-01|   -3.151096|
|         200|  1.3696e-01|   -3.227681|
+-----------------------------------------------------------------------+
|        File Writing Summary       |              Filename             |
+-----------------------------------------------------------------------+
|SU2 binary restart                 |restart_flow_databladeVALIDATION_Blade_14.dat|
|                                   |                     (12144.3 MB/s)|
|Paraview                           |volume_flow_databladeVALIDATION_Blade_14.vtu|
|                                   |                     (766.116 MB/s)|
|Paraview surface                   |surface_flowdatabladeVALIDATION_Blade_14.vtu|
|                                   |                      (73.294 MB/s)|
|SU2 ASCII restart                  |restart_flow_databladeVALIDATION_Blade_14.csv|
|                                   |                     (19.7865 MB/s)|
|CSV file                           |surface_flowdatabladeVALIDATION_Blade_14.csv|
|                                   |                     (20.2786 MB/s)|
+-----------------------------------------------------------------------+
+--------------------------------------+
|  Inner_Iter|   Time(sec)|    rms[Rho]|
+--------------------------------------+
|         210|  1.4606e-01|   -3.229737|
|         220|  1.4331e-01|   -3.237559|
|         230|  1.4134e-01|   -3.307900|
|         240|  1.3855e-01|   -3.369734|
|         250|  1.3652e-01|   -3.293106|
+-----------------------------------------------------------------------+
|        File Writing Summary       |              Filename             |
+-----------------------------------------------------------------------+
|SU2 binary restart                 |restart_flow_databladeVALIDATION_Blade_14.dat|
|                                   |                     (8670.43 MB/s)|
|Paraview                           |volume_flow_databladeVALIDATION_Blade_14.vtu|
|                                   |                      (863.91 MB/s)|
|Paraview surface                   |surface_flowdatabladeVALIDATION_Blade_14.vtu|
|                                   |                     (76.8843 MB/s)|
|SU2 ASCII restart                  |restart_flow_databladeVALIDATION_Blade_14.csv|
|                                   |                     (19.6811 MB/s)|
|CSV file                           |surface_flowdatabladeVALIDATION_Blade_14.csv|
|                                   |                      (17.823 MB/s)|
+-----------------------------------------------------------------------+
+--------------------------------------+
|  Inner_Iter|   Time(sec)|    rms[Rho]|
+--------------------------------------+
|         260|  1.4487e-01|   -3.243035|
|         270|  1.4258e-01|   -3.344208|
|         280|  1.4002e-01|   -3.459102|
|         290|  1.3797e-01|   -3.339511|
|         300|  1.3596e-01|   -3.380371|
+-----------------------------------------------------------------------+
|        File Writing Summary       |              Filename             |
+-----------------------------------------------------------------------+
|SU2 binary restart                 |restart_flow_databladeVALIDATION_Blade_14.dat|
|                                   |                     (10731.7 MB/s)|
|Paraview                           |volume_flow_databladeVALIDATION_Blade_14.vtu|
|                                   |                     (957.578 MB/s)|
|Paraview surface                   |surface_flowdatabladeVALIDATION_Blade_14.vtu|
|                                   |                     (85.1563 MB/s)|
|SU2 ASCII restart                  |restart_flow_databladeVALIDATION_Blade_14.csv|
|                                   |                     (20.6851 MB/s)|
|CSV file                           |surface_flowdatabladeVALIDATION_Blade_14.csv|
|                                   |                     (19.9585 MB/s)|
+-----------------------------------------------------------------------+
+--------------------------------------+
|  Inner_Iter|   Time(sec)|    rms[Rho]|
+--------------------------------------+
|         310|  1.4148e-01|   -3.454717|
|         320|  1.3935e-01|   -3.416822|
|         330|  1.3760e-01|   -3.406073|
|         340|  1.3575e-01|   -3.542526|
|         350|  1.3409e-01|   -3.575856|
+-----------------------------------------------------------------------+
|        File Writing Summary       |              Filename             |
+-----------------------------------------------------------------------+
|SU2 binary restart                 |restart_flow_databladeVALIDATION_Blade_14.dat|
|                                   |                     (8687.61 MB/s)|
|Paraview                           |volume_flow_databladeVALIDATION_Blade_14.vtu|
|                                   |                     (831.347 MB/s)|
|Paraview surface                   |surface_flowdatabladeVALIDATION_Blade_14.vtu|
|                                   |                     (61.9663 MB/s)|
|SU2 ASCII restart                  |restart_flow_databladeVALIDATION_Blade_14.csv|
|                                   |                     (20.2026 MB/s)|
|CSV file                           |surface_flowdatabladeVALIDATION_Blade_14.csv|
|                                   |                     (20.5114 MB/s)|
+-----------------------------------------------------------------------+
+--------------------------------------+
|  Inner_Iter|   Time(sec)|    rms[Rho]|
+--------------------------------------+
|         360|  1.3991e-01|   -3.407630|
|         370|  1.3814e-01|   -3.655719|
|         380|  1.3658e-01|   -3.582538|
|         390|  1.3533e-01|   -3.592278|
|         400|  1.3375e-01|   -3.705344|
+-----------------------------------------------------------------------+
|        File Writing Summary       |              Filename             |
+-----------------------------------------------------------------------+
|SU2 binary restart                 |restart_flow_databladeVALIDATION_Blade_14.dat|
|                                   |                     (11423.7 MB/s)|
|Paraview                           |volume_flow_databladeVALIDATION_Blade_14.vtu|
|                                   |                     (948.524 MB/s)|
|Paraview surface                   |surface_flowdatabladeVALIDATION_Blade_14.vtu|
|                                   |                      (114.28 MB/s)|
|SU2 ASCII restart                  |restart_flow_databladeVALIDATION_Blade_14.csv|
|                                   |                     (20.8884 MB/s)|
|CSV file                           |surface_flowdatabladeVALIDATION_Blade_14.csv|
|                                   |                     (19.2454 MB/s)|
+-----------------------------------------------------------------------+
+--------------------------------------+
|  Inner_Iter|   Time(sec)|    rms[Rho]|
+--------------------------------------+
|         410|  1.3805e-01|   -3.659947|
|         420|  1.3663e-01|   -3.517383|
|         430|  1.3493e-01|   -3.681306|
|         440|  1.3330e-01|   -3.659857|
|         450|  1.3209e-01|   -3.478339|
+-----------------------------------------------------------------------+
|        File Writing Summary       |              Filename             |
+-----------------------------------------------------------------------+
|SU2 binary restart                 |restart_flow_databladeVALIDATION_Blade_14.dat|
|                                   |                     (10430.9 MB/s)|
|Paraview                           |volume_flow_databladeVALIDATION_Blade_14.vtu|
|                                   |                     (912.707 MB/s)|
|Paraview surface                   |surface_flowdatabladeVALIDATION_Blade_14.vtu|
|                                   |                     (74.6627 MB/s)|
|SU2 ASCII restart                  |restart_flow_databladeVALIDATION_Blade_14.csv|
|                                   |                     (21.3034 MB/s)|
|CSV file                           |surface_flowdatabladeVALIDATION_Blade_14.csv|
|                                   |                     (20.0185 MB/s)|
+-----------------------------------------------------------------------+
+--------------------------------------+
|  Inner_Iter|   Time(sec)|    rms[Rho]|
+--------------------------------------+
|         460|  1.3575e-01|   -3.559817|
|         470|  1.3412e-01|   -3.654306|
|         480|  1.3274e-01|   -3.482128|
|         490|  1.3145e-01|   -3.387962|
|         500|  1.3016e-01|   -3.492149|
+-----------------------------------------------------------------------+
|        File Writing Summary       |              Filename             |
+-----------------------------------------------------------------------+
|SU2 binary restart                 |restart_flow_databladeVALIDATION_Blade_14.dat|
|                                   |                       (12006 MB/s)|
|Paraview                           |volume_flow_databladeVALIDATION_Blade_14.vtu|
|                                   |                      (988.29 MB/s)|
|Paraview surface                   |surface_flowdatabladeVALIDATION_Blade_14.vtu|
|                                   |                      (94.031 MB/s)|
|SU2 ASCII restart                  |restart_flow_databladeVALIDATION_Blade_14.csv|
|                                   |                     (21.2856 MB/s)|
|CSV file                           |surface_flowdatabladeVALIDATION_Blade_14.csv|
|                                   |                     (21.2499 MB/s)|
+-----------------------------------------------------------------------+
+--------------------------------------+
|  Inner_Iter|   Time(sec)|    rms[Rho]|
+--------------------------------------+
|         510|  1.3336e-01|   -3.577447|
|         520|  1.3222e-01|   -3.374914|
|         530|  1.3100e-01|   -3.542187|
|         540|  1.2969e-01|   -3.649795|
|         550|  1.2853e-01|   -3.524075|
+-----------------------------------------------------------------------+
|        File Writing Summary       |              Filename             |
+-----------------------------------------------------------------------+
|SU2 binary restart                 |restart_flow_databladeVALIDATION_Blade_14.dat|
|                                   |                     (11913.4 MB/s)|
|Paraview                           |volume_flow_databladeVALIDATION_Blade_14.vtu|
|                                   |                     (963.549 MB/s)|
|Paraview surface                   |surface_flowdatabladeVALIDATION_Blade_14.vtu|
|                                   |                     (122.217 MB/s)|
|SU2 ASCII restart                  |restart_flow_databladeVALIDATION_Blade_14.csv|
|                                   |                     (20.9373 MB/s)|
|CSV file                           |surface_flowdatabladeVALIDATION_Blade_14.csv|
|                                   |                     (20.2617 MB/s)|
+-----------------------------------------------------------------------+
+--------------------------------------+
|  Inner_Iter|   Time(sec)|    rms[Rho]|
+--------------------------------------+
|         560|  1.3177e-01|   -3.501215|
|         570|  1.3055e-01|   -3.748238|
|         580|  1.2959e-01|   -3.514876|
|         590|  1.2868e-01|   -3.644627|
|         600|  1.2761e-01|   -3.825231|
+-----------------------------------------------------------------------+
|        File Writing Summary       |              Filename             |
+-----------------------------------------------------------------------+
|SU2 binary restart                 |restart_flow_databladeVALIDATION_Blade_14.dat|
|                                   |                     (9425.28 MB/s)|
|Paraview                           |volume_flow_databladeVALIDATION_Blade_14.vtu|
|                                   |                     (650.293 MB/s)|
|Paraview surface                   |surface_flowdatabladeVALIDATION_Blade_14.vtu|
|                                   |                     (79.9092 MB/s)|
|SU2 ASCII restart                  |restart_flow_databladeVALIDATION_Blade_14.csv|
|                                   |                      (20.903 MB/s)|
|CSV file                           |surface_flowdatabladeVALIDATION_Blade_14.csv|
|                                   |                     (21.5936 MB/s)|
+-----------------------------------------------------------------------+
+--------------------------------------+
|  Inner_Iter|   Time(sec)|    rms[Rho]|
+--------------------------------------+
|         610|  1.3051e-01|   -3.678091|
|         620|  1.2952e-01|   -3.677049|
|         630|  1.2859e-01|   -3.845606|
|         640|  1.2754e-01|   -3.872428|
|         650|  1.2671e-01|   -3.688073|
+-----------------------------------------------------------------------+
|        File Writing Summary       |              Filename             |
+-----------------------------------------------------------------------+
|SU2 binary restart                 |restart_flow_databladeVALIDATION_Blade_14.dat|
|                                   |                     (11346.2 MB/s)|
|Paraview                           |volume_flow_databladeVALIDATION_Blade_14.vtu|
|                                   |                     (913.574 MB/s)|
|Paraview surface                   |surface_flowdatabladeVALIDATION_Blade_14.vtu|
|                                   |                     (70.3408 MB/s)|
|SU2 ASCII restart                  |restart_flow_databladeVALIDATION_Blade_14.csv|
|                                   |                      (20.986 MB/s)|
|CSV file                           |surface_flowdatabladeVALIDATION_Blade_14.csv|
|                                   |                     (20.9729 MB/s)|
+-----------------------------------------------------------------------+
+--------------------------------------+
|  Inner_Iter|   Time(sec)|    rms[Rho]|
+--------------------------------------+
|         660|  1.2950e-01|   -3.794941|
|         670|  1.2857e-01|   -3.981457|
|         680|  1.2767e-01|   -3.930568|
|         690|  1.2683e-01|   -3.845979|
|         700|  1.2606e-01|   -3.914806|
+-----------------------------------------------------------------------+
|        File Writing Summary       |              Filename             |
+-----------------------------------------------------------------------+
|SU2 binary restart                 |restart_flow_databladeVALIDATION_Blade_14.dat|
|                                   |                     (11893.3 MB/s)|
|Paraview                           |volume_flow_databladeVALIDATION_Blade_14.vtu|
|                                   |                     (965.162 MB/s)|
|Paraview surface                   |surface_flowdatabladeVALIDATION_Blade_14.vtu|
|                                   |                     (80.6281 MB/s)|
|SU2 ASCII restart                  |restart_flow_databladeVALIDATION_Blade_14.csv|
|                                   |                     (20.7325 MB/s)|
|CSV file                           |surface_flowdatabladeVALIDATION_Blade_14.csv|
|                                   |                     (21.6245 MB/s)|
+-----------------------------------------------------------------------+
+--------------------------------------+
|  Inner_Iter|   Time(sec)|    rms[Rho]|
+--------------------------------------+
|         710|  1.2856e-01|   -4.023432|
|         720|  1.2772e-01|   -3.953592|
|         730|  1.2703e-01|   -3.959508|
|         740|  1.2627e-01|   -4.132310|
|         750|  1.2554e-01|   -4.161895|
+-----------------------------------------------------------------------+
|        File Writing Summary       |              Filename             |
+-----------------------------------------------------------------------+
|SU2 binary restart                 |restart_flow_databladeVALIDATION_Blade_14.dat|
|                                   |                       (12055 MB/s)|
|Paraview                           |volume_flow_databladeVALIDATION_Blade_14.vtu|
|                                   |                       (911.7 MB/s)|
|Paraview surface                   |surface_flowdatabladeVALIDATION_Blade_14.vtu|
|                                   |                     (122.915 MB/s)|
|SU2 ASCII restart                  |restart_flow_databladeVALIDATION_Blade_14.csv|
|                                   |                     (20.4301 MB/s)|
|CSV file                           |surface_flowdatabladeVALIDATION_Blade_14.csv|
|                                   |                      (18.782 MB/s)|
+-----------------------------------------------------------------------+
+--------------------------------------+
|  Inner_Iter|   Time(sec)|    rms[Rho]|
+--------------------------------------+
|         760|  1.2802e-01|   -4.058771|
|         770|  1.2741e-01|   -4.040284|
|         780|  1.2660e-01|   -4.184965|
|         790|  1.2590e-01|   -4.166104|
|         800|  1.2542e-01|   -4.127508|
+-----------------------------------------------------------------------+
|        File Writing Summary       |              Filename             |
+-----------------------------------------------------------------------+
|SU2 binary restart                 |restart_flow_databladeVALIDATION_Blade_14.dat|
|                                   |                     (8695.06 MB/s)|
|Paraview                           |volume_flow_databladeVALIDATION_Blade_14.vtu|
|                                   |                     (962.183 MB/s)|
|Paraview surface                   |surface_flowdatabladeVALIDATION_Blade_14.vtu|
|                                   |                     (81.6493 MB/s)|
|SU2 ASCII restart                  |restart_flow_databladeVALIDATION_Blade_14.csv|
|                                   |                     (20.6625 MB/s)|
|CSV file                           |surface_flowdatabladeVALIDATION_Blade_14.csv|
|                                   |                     (21.0131 MB/s)|
+-----------------------------------------------------------------------+
+--------------------------------------+
|  Inner_Iter|   Time(sec)|    rms[Rho]|
+--------------------------------------+
|         810|  1.2768e-01|   -4.286693|
|         820|  1.2696e-01|   -4.287773|
|         830|  1.2635e-01|   -4.159293|
|         840|  1.2573e-01|   -4.226031|
|         850|  1.2496e-01|   -4.320528|
+-----------------------------------------------------------------------+
|        File Writing Summary       |              Filename             |
+-----------------------------------------------------------------------+
|SU2 binary restart                 |restart_flow_databladeVALIDATION_Blade_14.dat|
|                                   |                     (8232.78 MB/s)|
|Paraview                           |volume_flow_databladeVALIDATION_Blade_14.vtu|
|                                   |                     (925.819 MB/s)|
|Paraview surface                   |surface_flowdatabladeVALIDATION_Blade_14.vtu|
|                                   |                     (106.746 MB/s)|
|SU2 ASCII restart                  |restart_flow_databladeVALIDATION_Blade_14.csv|
|                                   |                     (20.9949 MB/s)|
|CSV file                           |surface_flowdatabladeVALIDATION_Blade_14.csv|
|                                   |                     (18.9521 MB/s)|
+-----------------------------------------------------------------------+
+--------------------------------------+
|  Inner_Iter|   Time(sec)|    rms[Rho]|
+--------------------------------------+
|         860|  1.2702e-01|   -4.270363|
|         870|  1.2647e-01|   -4.211849|
|         880|  1.2596e-01|   -4.220346|
|         890|  1.2536e-01|   -4.292744|
|         900|  1.2465e-01|   -4.360281|
+-----------------------------------------------------------------------+
|        File Writing Summary       |              Filename             |
+-----------------------------------------------------------------------+
|SU2 binary restart                 |restart_flow_databladeVALIDATION_Blade_14.dat|
|                                   |                     (12423.2 MB/s)|
|Paraview                           |volume_flow_databladeVALIDATION_Blade_14.vtu|
|                                   |                     (1009.16 MB/s)|
|Paraview surface                   |surface_flowdatabladeVALIDATION_Blade_14.vtu|
|                                   |                     (98.8341 MB/s)|
|SU2 ASCII restart                  |restart_flow_databladeVALIDATION_Blade_14.csv|
|                                   |                     (21.5031 MB/s)|
|CSV file                           |surface_flowdatabladeVALIDATION_Blade_14.csv|
|                                   |                     (20.8889 MB/s)|
+-----------------------------------------------------------------------+
+--------------------------------------+
|  Inner_Iter|   Time(sec)|    rms[Rho]|
+--------------------------------------+
|         910|  1.2656e-01|   -4.289561|
|         920|  1.2599e-01|   -4.269786|
|         930|  1.2534e-01|   -4.476540|
|         940|  1.2466e-01|   -4.549922|
|         950|  1.2407e-01|   -4.460079|
+-----------------------------------------------------------------------+
|        File Writing Summary       |              Filename             |
+-----------------------------------------------------------------------+
|SU2 binary restart                 |restart_flow_databladeVALIDATION_Blade_14.dat|
|                                   |                     (11624.1 MB/s)|
|Paraview                           |volume_flow_databladeVALIDATION_Blade_14.vtu|
|                                   |                     (982.394 MB/s)|
|Paraview surface                   |surface_flowdatabladeVALIDATION_Blade_14.vtu|
|                                   |                      (87.107 MB/s)|
|SU2 ASCII restart                  |restart_flow_databladeVALIDATION_Blade_14.csv|
|                                   |                     (21.0263 MB/s)|
|CSV file                           |surface_flowdatabladeVALIDATION_Blade_14.csv|
|                                   |                     (21.2801 MB/s)|
+-----------------------------------------------------------------------+
+--------------------------------------+
|  Inner_Iter|   Time(sec)|    rms[Rho]|
+--------------------------------------+
|         960|  1.2605e-01|   -4.483638|
|         970|  1.2547e-01|   -4.602578|
|         980|  1.2490e-01|   -4.513716|
|         990|  1.2440e-01|   -4.511039|
|        1000|  1.2387e-01|   -4.703882|
+-----------------------------------------------------------------------+
|        File Writing Summary       |              Filename             |
+-----------------------------------------------------------------------+
|SU2 binary restart                 |restart_flow_databladeVALIDATION_Blade_14.dat|
|                                   |                     (12813.6 MB/s)|
|Paraview                           |volume_flow_databladeVALIDATION_Blade_14.vtu|
|                                   |                     (981.314 MB/s)|
|Paraview surface                   |surface_flowdatabladeVALIDATION_Blade_14.vtu|
|                                   |                     (135.221 MB/s)|
|SU2 ASCII restart                  |restart_flow_databladeVALIDATION_Blade_14.csv|
|                                   |                      (21.299 MB/s)|
|CSV file                           |surface_flowdatabladeVALIDATION_Blade_14.csv|
|                                   |                     (19.4228 MB/s)|
+-----------------------------------------------------------------------+
+--------------------------------------+
|  Inner_Iter|   Time(sec)|    rms[Rho]|
+--------------------------------------+
|        1010|  1.2572e-01|   -4.617986|
|        1020|  1.2523e-01|   -4.565931|
|        1030|  1.2473e-01|   -4.684171|
|        1040|  1.2419e-01|   -4.779217|
|        1050|  1.2369e-01|   -4.757138|
+-----------------------------------------------------------------------+
|        File Writing Summary       |              Filename             |
+-----------------------------------------------------------------------+
|SU2 binary restart                 |restart_flow_databladeVALIDATION_Blade_14.dat|
|                                   |                     (10459.2 MB/s)|
|Paraview                           |volume_flow_databladeVALIDATION_Blade_14.vtu|
|                                   |                     (920.275 MB/s)|
|Paraview surface                   |surface_flowdatabladeVALIDATION_Blade_14.vtu|
|                                   |                     (121.204 MB/s)|
|SU2 ASCII restart                  |restart_flow_databladeVALIDATION_Blade_14.csv|
|                                   |                     (20.9189 MB/s)|
|CSV file                           |surface_flowdatabladeVALIDATION_Blade_14.csv|
|                                   |                     (20.3597 MB/s)|
+-----------------------------------------------------------------------+
+--------------------------------------+
|  Inner_Iter|   Time(sec)|    rms[Rho]|
+--------------------------------------+
|        1060|  1.2541e-01|   -4.721368|
|        1070|  1.2488e-01|   -4.869953|
|        1080|  1.2438e-01|   -4.850838|
|        1090|  1.2391e-01|   -4.797941|
|        1100|  1.2349e-01|   -4.880865|
+-----------------------------------------------------------------------+
|        File Writing Summary       |              Filename             |
+-----------------------------------------------------------------------+
|SU2 binary restart                 |restart_flow_databladeVALIDATION_Blade_14.dat|
|                                   |                       (12391 MB/s)|
|Paraview                           |volume_flow_databladeVALIDATION_Blade_14.vtu|
|                                   |                     (848.729 MB/s)|
|Paraview surface                   |surface_flowdatabladeVALIDATION_Blade_14.vtu|
|                                   |                     (86.4046 MB/s)|
|SU2 ASCII restart                  |restart_flow_databladeVALIDATION_Blade_14.csv|
|                                   |                     (20.9833 MB/s)|
|CSV file                           |surface_flowdatabladeVALIDATION_Blade_14.csv|
|                                   |                     (19.0818 MB/s)|
+-----------------------------------------------------------------------+
+--------------------------------------+
|  Inner_Iter|   Time(sec)|    rms[Rho]|
+--------------------------------------+
|        1110|  1.2511e-01|   -4.933423|
|        1120|  1.2468e-01|   -4.823307|
|        1130|  1.2425e-01|   -4.834019|
|        1140|  1.2378e-01|   -4.975408|
|        1150|  1.2333e-01|   -5.002617|
+-----------------------------------------------------------------------+
|        File Writing Summary       |              Filename             |
+-----------------------------------------------------------------------+
|SU2 binary restart                 |restart_flow_databladeVALIDATION_Blade_14.dat|
|                                   |                     (11420.4 MB/s)|
|Paraview                           |volume_flow_databladeVALIDATION_Blade_14.vtu|
|                                   |                     (1012.95 MB/s)|
|Paraview surface                   |surface_flowdatabladeVALIDATION_Blade_14.vtu|
|                                   |                     (109.188 MB/s)|
|SU2 ASCII restart                  |restart_flow_databladeVALIDATION_Blade_14.csv|
|                                   |                     (20.9468 MB/s)|
|CSV file                           |surface_flowdatabladeVALIDATION_Blade_14.csv|
|                                   |                     (19.2333 MB/s)|
+-----------------------------------------------------------------------+
+--------------------------------------+
|  Inner_Iter|   Time(sec)|    rms[Rho]|
+--------------------------------------+
|        1160|  1.2489e-01|   -4.931263|
|        1170|  1.2448e-01|   -4.951079|
|        1180|  1.2396e-01|   -5.099554|
|        1190|  1.2363e-01|   -4.999085|
|        1200|  1.2332e-01|   -5.035395|
+-----------------------------------------------------------------------+
|        File Writing Summary       |              Filename             |
+-----------------------------------------------------------------------+
|SU2 binary restart                 |restart_flow_databladeVALIDATION_Blade_14.dat|
|                                   |                     (9758.54 MB/s)|
|Paraview                           |volume_flow_databladeVALIDATION_Blade_14.vtu|
|                                   |                      (857.39 MB/s)|
|Paraview surface                   |surface_flowdatabladeVALIDATION_Blade_14.vtu|
|                                   |                     (76.3317 MB/s)|
|SU2 ASCII restart                  |restart_flow_databladeVALIDATION_Blade_14.csv|
|                                   |                     (21.0462 MB/s)|
|CSV file                           |surface_flowdatabladeVALIDATION_Blade_14.csv|
|                                   |                     (17.4694 MB/s)|
+-----------------------------------------------------------------------+
+--------------------------------------+
|  Inner_Iter|   Time(sec)|    rms[Rho]|
+--------------------------------------+
|        1210|  1.2500e-01|   -5.044441|
|        1220|  1.2464e-01|   -5.058444|
|        1230|  1.2429e-01|   -5.081772|
|        1240|  1.2393e-01|   -5.107740|
|        1250|  1.2343e-01|   -5.268884|
+-----------------------------------------------------------------------+
|        File Writing Summary       |              Filename             |
+-----------------------------------------------------------------------+
|SU2 binary restart                 |restart_flow_databladeVALIDATION_Blade_14.dat|
|                                   |                      (9303.7 MB/s)|
|Paraview                           |volume_flow_databladeVALIDATION_Blade_14.vtu|
|                                   |                     (893.639 MB/s)|
|Paraview surface                   |surface_flowdatabladeVALIDATION_Blade_14.vtu|
|                                   |                     (76.5377 MB/s)|
|SU2 ASCII restart                  |restart_flow_databladeVALIDATION_Blade_14.csv|
|                                   |                     (20.6307 MB/s)|
|CSV file                           |surface_flowdatabladeVALIDATION_Blade_14.csv|
|                                   |                     (20.3521 MB/s)|
+-----------------------------------------------------------------------+
+--------------------------------------+
|  Inner_Iter|   Time(sec)|    rms[Rho]|
+--------------------------------------+
|        1260|  1.2490e-01|   -5.242792|
|        1270|  1.2447e-01|   -5.209003|
|        1280|  1.2404e-01|   -5.259846|
|        1290|  1.2359e-01|   -5.326260|
|        1300|  1.2321e-01|   -5.206763|
+-----------------------------------------------------------------------+
|        File Writing Summary       |              Filename             |
+-----------------------------------------------------------------------+
|SU2 binary restart                 |restart_flow_databladeVALIDATION_Blade_14.dat|
|                                   |                     (8809.76 MB/s)|
|Paraview                           |volume_flow_databladeVALIDATION_Blade_14.vtu|
|                                   |                     (931.281 MB/s)|
|Paraview surface                   |surface_flowdatabladeVALIDATION_Blade_14.vtu|
|                                   |                     (80.3861 MB/s)|
|SU2 ASCII restart                  |restart_flow_databladeVALIDATION_Blade_14.csv|
|                                   |                     (21.7075 MB/s)|
|CSV file                           |surface_flowdatabladeVALIDATION_Blade_14.csv|
|                                   |                     (20.8494 MB/s)|
+-----------------------------------------------------------------------+
+--------------------------------------+
|  Inner_Iter|   Time(sec)|    rms[Rho]|
+--------------------------------------+
|        1310|  1.2457e-01|   -5.258701|
|        1320|  1.2412e-01|   -5.338441|
|        1330|  1.2371e-01|   -5.319239|
|        1340|  1.2331e-01|   -5.252671|
|        1350|  1.2301e-01|   -5.256095|
+-----------------------------------------------------------------------+
|        File Writing Summary       |              Filename             |
+-----------------------------------------------------------------------+
|SU2 binary restart                 |restart_flow_databladeVALIDATION_Blade_14.dat|
|                                   |                       (11481 MB/s)|
|Paraview                           |volume_flow_databladeVALIDATION_Blade_14.vtu|
|                                   |                     (882.914 MB/s)|
|Paraview surface                   |surface_flowdatabladeVALIDATION_Blade_14.vtu|
|                                   |                     (91.8003 MB/s)|
|SU2 ASCII restart                  |restart_flow_databladeVALIDATION_Blade_14.csv|
|                                   |                     (21.2351 MB/s)|
|CSV file                           |surface_flowdatabladeVALIDATION_Blade_14.csv|
|                                   |                     (19.1947 MB/s)|
+-----------------------------------------------------------------------+
+--------------------------------------+
|  Inner_Iter|   Time(sec)|    rms[Rho]|
+--------------------------------------+
|        1360|  1.2431e-01|   -5.330665|
|        1370|  1.2391e-01|   -5.299142|
|        1380|  1.2360e-01|   -5.275864|
|        1390|  1.2319e-01|   -5.418963|
|        1400|  1.2284e-01|   -5.372481|
+-----------------------------------------------------------------------+
|        File Writing Summary       |              Filename             |
+-----------------------------------------------------------------------+
|SU2 binary restart                 |restart_flow_databladeVALIDATION_Blade_14.dat|
|                                   |                     (9409.98 MB/s)|
|Paraview                           |volume_flow_databladeVALIDATION_Blade_14.vtu|
|                                   |                     (1029.44 MB/s)|
|Paraview surface                   |surface_flowdatabladeVALIDATION_Blade_14.vtu|
|                                   |                     (123.387 MB/s)|
|SU2 ASCII restart                  |restart_flow_databladeVALIDATION_Blade_14.csv|
|                                   |                     (20.5741 MB/s)|
|CSV file                           |surface_flowdatabladeVALIDATION_Blade_14.csv|
|                                   |                     (19.5804 MB/s)|
+-----------------------------------------------------------------------+
+--------------------------------------+
|  Inner_Iter|   Time(sec)|    rms[Rho]|
+--------------------------------------+
|        1410|  1.2417e-01|   -5.435544|
|        1420|  1.2372e-01|   -5.506137|
|        1430|  1.2333e-01|   -5.465795|
|        1440|  1.2299e-01|   -5.400962|
|        1450|  1.2266e-01|   -5.428943|
+-----------------------------------------------------------------------+
|        File Writing Summary       |              Filename             |
+-----------------------------------------------------------------------+
|SU2 binary restart                 |restart_flow_databladeVALIDATION_Blade_14.dat|
|                                   |                     (11050.3 MB/s)|
|Paraview                           |volume_flow_databladeVALIDATION_Blade_14.vtu|
|                                   |                     (835.849 MB/s)|
|Paraview surface                   |surface_flowdatabladeVALIDATION_Blade_14.vtu|
|                                   |                     (22.5392 MB/s)|
|SU2 ASCII restart                  |restart_flow_databladeVALIDATION_Blade_14.csv|
|                                   |                     (21.1311 MB/s)|
|CSV file                           |surface_flowdatabladeVALIDATION_Blade_14.csv|
|                                   |                     (21.2534 MB/s)|
+-----------------------------------------------------------------------+
+--------------------------------------+
|  Inner_Iter|   Time(sec)|    rms[Rho]|
+--------------------------------------+
|        1460|  1.2392e-01|   -5.488237|
|        1470|  1.2349e-01|   -5.571113|
|        1480|  1.2312e-01|   -5.510232|
|        1490|  1.2285e-01|   -5.436860|
|        1500|  1.2255e-01|   -5.544812|
+-----------------------------------------------------------------------+
|        File Writing Summary       |              Filename             |
+-----------------------------------------------------------------------+
|SU2 binary restart                 |restart_flow_databladeVALIDATION_Blade_14.dat|
|                                   |                     (12253.4 MB/s)|
|Paraview                           |volume_flow_databladeVALIDATION_Blade_14.vtu|
|                                   |                     (988.343 MB/s)|
|Paraview surface                   |surface_flowdatabladeVALIDATION_Blade_14.vtu|
|                                   |                     (100.503 MB/s)|
|SU2 ASCII restart                  |restart_flow_databladeVALIDATION_Blade_14.csv|
|                                   |                      (20.882 MB/s)|
|CSV file                           |surface_flowdatabladeVALIDATION_Blade_14.csv|
|                                   |                     (18.6133 MB/s)|
+-----------------------------------------------------------------------+
+--------------------------------------+
|  Inner_Iter|   Time(sec)|    rms[Rho]|
+--------------------------------------+
|        1510|  1.2376e-01|   -5.561846|
|        1520|  1.2344e-01|   -5.495251|
|        1530|  1.2313e-01|   -5.566053|
|        1540|  1.2274e-01|   -5.627677|
|        1550|  1.2238e-01|   -5.572318|
+-----------------------------------------------------------------------+
|        File Writing Summary       |              Filename             |
+-----------------------------------------------------------------------+
|SU2 binary restart                 |restart_flow_databladeVALIDATION_Blade_14.dat|
|                                   |                     (11027.8 MB/s)|
|Paraview                           |volume_flow_databladeVALIDATION_Blade_14.vtu|
|                                   |                     (1005.13 MB/s)|
|Paraview surface                   |surface_flowdatabladeVALIDATION_Blade_14.vtu|
|                                   |                     (88.9485 MB/s)|
|SU2 ASCII restart                  |restart_flow_databladeVALIDATION_Blade_14.csv|
|                                   |                     (21.1326 MB/s)|
|CSV file                           |surface_flowdatabladeVALIDATION_Blade_14.csv|
|                                   |                     (19.4887 MB/s)|
+-----------------------------------------------------------------------+
+--------------------------------------+
|  Inner_Iter|   Time(sec)|    rms[Rho]|
+--------------------------------------+
|        1560|  1.2365e-01|   -5.506642|
|        1570|  1.2342e-01|   -5.497236|
|        1580|  1.2305e-01|   -5.560730|
|        1590|  1.2270e-01|   -5.539440|
|        1600|  1.2242e-01|   -5.477903|
+-----------------------------------------------------------------------+
|        File Writing Summary       |              Filename             |
+-----------------------------------------------------------------------+
|SU2 binary restart                 |restart_flow_databladeVALIDATION_Blade_14.dat|
|                                   |                     (13890.7 MB/s)|
|Paraview                           |volume_flow_databladeVALIDATION_Blade_14.vtu|
|                                   |                     (848.547 MB/s)|
|Paraview surface                   |surface_flowdatabladeVALIDATION_Blade_14.vtu|
|                                   |                     (64.7506 MB/s)|
|SU2 ASCII restart                  |restart_flow_databladeVALIDATION_Blade_14.csv|
|                                   |                     (20.5389 MB/s)|
|CSV file                           |surface_flowdatabladeVALIDATION_Blade_14.csv|
|                                   |                     (18.7276 MB/s)|
+-----------------------------------------------------------------------+
+--------------------------------------+
|  Inner_Iter|   Time(sec)|    rms[Rho]|
+--------------------------------------+
|        1610|  1.2372e-01|   -5.516380|
|        1620|  1.2344e-01|   -5.581284|
|        1630|  1.2307e-01|   -5.577735|
|        1640|  1.2282e-01|   -5.529220|
|        1650|  1.2249e-01|   -5.596859|
+-----------------------------------------------------------------------+
|        File Writing Summary       |              Filename             |
+-----------------------------------------------------------------------+
|SU2 binary restart                 |restart_flow_databladeVALIDATION_Blade_14.dat|
|                                   |                     (12144.3 MB/s)|
|Paraview                           |volume_flow_databladeVALIDATION_Blade_14.vtu|
|                                   |                      (978.71 MB/s)|
|Paraview surface                   |surface_flowdatabladeVALIDATION_Blade_14.vtu|
|                                   |                     (95.8631 MB/s)|
|SU2 ASCII restart                  |restart_flow_databladeVALIDATION_Blade_14.csv|
|                                   |                      (21.232 MB/s)|
|CSV file                           |surface_flowdatabladeVALIDATION_Blade_14.csv|
|                                   |                     (20.3912 MB/s)|
+-----------------------------------------------------------------------+
+--------------------------------------+
|  Inner_Iter|   Time(sec)|    rms[Rho]|
+--------------------------------------+
|        1660|  1.2355e-01|   -5.600487|
|        1670|  1.2336e-01|   -5.559705|
|        1680|  1.2318e-01|   -5.525412|
|        1690|  1.2285e-01|   -5.596326|
|        1700|  1.2264e-01|   -5.519956|
+-----------------------------------------------------------------------+
|        File Writing Summary       |              Filename             |
+-----------------------------------------------------------------------+
|SU2 binary restart                 |restart_flow_databladeVALIDATION_Blade_14.dat|
|                                   |                     (11722.4 MB/s)|
|Paraview                           |volume_flow_databladeVALIDATION_Blade_14.vtu|
|                                   |                     (875.614 MB/s)|
|Paraview surface                   |surface_flowdatabladeVALIDATION_Blade_14.vtu|
|                                   |                     (94.8485 MB/s)|
|SU2 ASCII restart                  |restart_flow_databladeVALIDATION_Blade_14.csv|
|                                   |                     (21.3679 MB/s)|
|CSV file                           |surface_flowdatabladeVALIDATION_Blade_14.csv|
|                                   |                     (20.1362 MB/s)|
+-----------------------------------------------------------------------+
+--------------------------------------+
|  Inner_Iter|   Time(sec)|    rms[Rho]|
+--------------------------------------+
|        1710|  1.2375e-01|   -5.587000|
|        1720|  1.2341e-01|   -5.674805|
|        1730|  1.2309e-01|   -5.703721|
|        1740|  1.2280e-01|   -5.677646|
|        1750|  1.2253e-01|   -5.667198|
+-----------------------------------------------------------------------+
|        File Writing Summary       |              Filename             |
+-----------------------------------------------------------------------+
|SU2 binary restart                 |restart_flow_databladeVALIDATION_Blade_14.dat|
|                                   |                     (12463.3 MB/s)|
|Paraview                           |volume_flow_databladeVALIDATION_Blade_14.vtu|
|                                   |                     (917.285 MB/s)|
|Paraview surface                   |surface_flowdatabladeVALIDATION_Blade_14.vtu|
|                                   |                     (81.9519 MB/s)|
|SU2 ASCII restart                  |restart_flow_databladeVALIDATION_Blade_14.csv|
|                                   |                     (21.3218 MB/s)|
|CSV file                           |surface_flowdatabladeVALIDATION_Blade_14.csv|
|                                   |                     (19.9414 MB/s)|
+-----------------------------------------------------------------------+
+--------------------------------------+
|  Inner_Iter|   Time(sec)|    rms[Rho]|
+--------------------------------------+
|        1760|  1.2352e-01|   -5.719291|
|        1770|  1.2321e-01|   -5.696355|
|        1780|  1.2293e-01|   -5.660683|
|        1790|  1.2261e-01|   -5.714078|
|        1800|  1.2227e-01|   -5.751169|
+-----------------------------------------------------------------------+
|        File Writing Summary       |              Filename             |
+-----------------------------------------------------------------------+
|SU2 binary restart                 |restart_flow_databladeVALIDATION_Blade_14.dat|
|                                   |                     (12605.6 MB/s)|
|Paraview                           |volume_flow_databladeVALIDATION_Blade_14.vtu|
|                                   |                      (926.37 MB/s)|
|Paraview surface                   |surface_flowdatabladeVALIDATION_Blade_14.vtu|
|                                   |                     (101.758 MB/s)|
|SU2 ASCII restart                  |restart_flow_databladeVALIDATION_Blade_14.csv|
|                                   |                     (21.5264 MB/s)|
|CSV file                           |surface_flowdatabladeVALIDATION_Blade_14.csv|
|                                   |                      (20.681 MB/s)|
+-----------------------------------------------------------------------+
+--------------------------------------+
|  Inner_Iter|   Time(sec)|    rms[Rho]|
+--------------------------------------+
|        1810|  1.2327e-01|   -5.701705|
|        1820|  1.2299e-01|   -5.740178|
|        1830|  1.2266e-01|   -5.829693|
|        1840|  1.2236e-01|   -5.813666|
|        1850|  1.2206e-01|   -5.787486|
+-----------------------------------------------------------------------+
|        File Writing Summary       |              Filename             |
+-----------------------------------------------------------------------+
|SU2 binary restart                 |restart_flow_databladeVALIDATION_Blade_14.dat|
|                                   |                     (12085.5 MB/s)|
|Paraview                           |volume_flow_databladeVALIDATION_Blade_14.vtu|
|                                   |                     (941.175 MB/s)|
|Paraview surface                   |surface_flowdatabladeVALIDATION_Blade_14.vtu|
|                                   |                     (97.9626 MB/s)|
|SU2 ASCII restart                  |restart_flow_databladeVALIDATION_Blade_14.csv|
|                                   |                     (21.3774 MB/s)|
|CSV file                           |surface_flowdatabladeVALIDATION_Blade_14.csv|
|                                   |                     (21.1225 MB/s)|
+-----------------------------------------------------------------------+
+--------------------------------------+
|  Inner_Iter|   Time(sec)|    rms[Rho]|
+--------------------------------------+
|        1860|  1.2303e-01|   -5.825056|
|        1870|  1.2276e-01|   -5.868471|
|        1880|  1.2265e-01|   -5.775856|
|        1890|  1.2247e-01|   -5.785617|
|        1900|  1.2219e-01|   -5.842971|
+-----------------------------------------------------------------------+
|        File Writing Summary       |              Filename             |
+-----------------------------------------------------------------------+
|SU2 binary restart                 |restart_flow_databladeVALIDATION_Blade_14.dat|
|                                   |                     (12197.3 MB/s)|
|Paraview                           |volume_flow_databladeVALIDATION_Blade_14.vtu|
|                                   |                     (887.923 MB/s)|
|Paraview surface                   |surface_flowdatabladeVALIDATION_Blade_14.vtu|
|                                   |                     (97.0321 MB/s)|
|SU2 ASCII restart                  |restart_flow_databladeVALIDATION_Blade_14.csv|
|                                   |                     (21.2154 MB/s)|
|CSV file                           |surface_flowdatabladeVALIDATION_Blade_14.csv|
|                                   |                     (20.9596 MB/s)|
+-----------------------------------------------------------------------+
+--------------------------------------+
|  Inner_Iter|   Time(sec)|    rms[Rho]|
+--------------------------------------+
|        1910|  1.2314e-01|   -5.807286|
|        1920|  1.2292e-01|   -5.831121|
|        1930|  1.2261e-01|   -5.889509|
|        1940|  1.2240e-01|   -5.827128|
|        1950|  1.2223e-01|   -5.828823|
+-----------------------------------------------------------------------+
|        File Writing Summary       |              Filename             |
+-----------------------------------------------------------------------+
|SU2 binary restart                 |restart_flow_databladeVALIDATION_Blade_14.dat|
|                                   |                     (11885.5 MB/s)|
|Paraview                           |volume_flow_databladeVALIDATION_Blade_14.vtu|
|                                   |                     (1021.37 MB/s)|
|Paraview surface                   |surface_flowdatabladeVALIDATION_Blade_14.vtu|
|                                   |                     (101.178 MB/s)|
|SU2 ASCII restart                  |restart_flow_databladeVALIDATION_Blade_14.csv|
|                                   |                     (21.5851 MB/s)|
|CSV file                           |surface_flowdatabladeVALIDATION_Blade_14.csv|
|                                   |                     (21.7481 MB/s)|
+-----------------------------------------------------------------------+
+--------------------------------------+
|  Inner_Iter|   Time(sec)|    rms[Rho]|
+--------------------------------------+
|        1960|  1.2317e-01|   -5.835509|
|        1970|  1.2290e-01|   -5.846134|
|        1980|  1.2263e-01|   -5.857447|
|        1990|  1.2230e-01|   -5.906314|
|        2000|  1.2201e-01|   -5.903277|
+-----------------------------------------------------------------------+
|        File Writing Summary       |              Filename             |
+-----------------------------------------------------------------------+
|SU2 binary restart                 |restart_flow_databladeVALIDATION_Blade_14.dat|
|                                   |                     (12476.7 MB/s)|
|Paraview                           |volume_flow_databladeVALIDATION_Blade_14.vtu|
|                                   |                     (923.871 MB/s)|
|Paraview surface                   |surface_flowdatabladeVALIDATION_Blade_14.vtu|
|                                   |                     (92.4091 MB/s)|
|SU2 ASCII restart                  |restart_flow_databladeVALIDATION_Blade_14.csv|
|                                   |                     (21.7628 MB/s)|
|CSV file                           |surface_flowdatabladeVALIDATION_Blade_14.csv|
|                                   |                     (20.1225 MB/s)|
+-----------------------------------------------------------------------+
+--------------------------------------+
|  Inner_Iter|   Time(sec)|    rms[Rho]|
+--------------------------------------+
|        2010|  1.2295e-01|   -5.846794|
|        2020|  1.2269e-01|   -5.973576|
|        2030|  1.2240e-01|   -6.008652|
|        2040|  1.2221e-01|   -5.970856|
|        2050|  1.2201e-01|   -5.970367|
+-----------------------------------------------------------------------+
|        File Writing Summary       |              Filename             |
+-----------------------------------------------------------------------+
|SU2 binary restart                 |restart_flow_databladeVALIDATION_Blade_14.dat|
|                                   |                     (11316.9 MB/s)|
|Paraview                           |volume_flow_databladeVALIDATION_Blade_14.vtu|
|                                   |                     (1012.92 MB/s)|
|Paraview surface                   |surface_flowdatabladeVALIDATION_Blade_14.vtu|
|                                   |                     (84.2546 MB/s)|
|SU2 ASCII restart                  |restart_flow_databladeVALIDATION_Blade_14.csv|
|                                   |                     (20.9836 MB/s)|
|CSV file                           |surface_flowdatabladeVALIDATION_Blade_14.csv|
|                                   |                      (19.631 MB/s)|
+-----------------------------------------------------------------------+
+--------------------------------------+
|  Inner_Iter|   Time(sec)|    rms[Rho]|
+--------------------------------------+
|        2060|  1.2286e-01|   -6.034167|
|        2070|  1.2256e-01|   -6.011891|
|        2080|  1.2230e-01|   -5.945574|
|        2090|  1.2203e-01|   -5.992246|
|        2100|  1.2174e-01|   -6.031803|
+-----------------------------------------------------------------------+
|        File Writing Summary       |              Filename             |
+-----------------------------------------------------------------------+
|SU2 binary restart                 |restart_flow_databladeVALIDATION_Blade_14.dat|
|                                   |                     (12222.1 MB/s)|
|Paraview                           |volume_flow_databladeVALIDATION_Blade_14.vtu|
|                                   |                     (967.576 MB/s)|
|Paraview surface                   |surface_flowdatabladeVALIDATION_Blade_14.vtu|
|                                   |                     (98.5956 MB/s)|
|SU2 ASCII restart                  |restart_flow_databladeVALIDATION_Blade_14.csv|
|                                   |                     (21.1703 MB/s)|
|CSV file                           |surface_flowdatabladeVALIDATION_Blade_14.csv|
|                                   |                     (20.1939 MB/s)|
+-----------------------------------------------------------------------+
+--------------------------------------+
|  Inner_Iter|   Time(sec)|    rms[Rho]|
+--------------------------------------+
|        2110|  1.2258e-01|   -6.021930|
|        2120|  1.2240e-01|   -5.980412|
|        2130|  1.2214e-01|   -6.106814|
|        2140|  1.2195e-01|   -6.065274|
|        2150|  1.2175e-01|   -6.052322|
+-----------------------------------------------------------------------+
|        File Writing Summary       |              Filename             |
+-----------------------------------------------------------------------+
|SU2 binary restart                 |restart_flow_databladeVALIDATION_Blade_14.dat|
|                                   |                     (10828.4 MB/s)|
|Paraview                           |volume_flow_databladeVALIDATION_Blade_14.vtu|
|                                   |                     (925.362 MB/s)|
|Paraview surface                   |surface_flowdatabladeVALIDATION_Blade_14.vtu|
|                                   |                     (97.2121 MB/s)|
|SU2 ASCII restart                  |restart_flow_databladeVALIDATION_Blade_14.csv|
|                                   |                     (21.7461 MB/s)|
|CSV file                           |surface_flowdatabladeVALIDATION_Blade_14.csv|
|                                   |                     (20.5389 MB/s)|
+-----------------------------------------------------------------------+
+--------------------------------------+
|  Inner_Iter|   Time(sec)|    rms[Rho]|
+--------------------------------------+
|        2160|  1.2262e-01|   -6.048014|
|        2170|  1.2242e-01|   -6.042892|
|        2180|  1.2215e-01|   -6.129470|
|        2190|  1.2187e-01|   -6.147033|
|        2200|  1.2163e-01|   -6.098081|
+-----------------------------------------------------------------------+
|        File Writing Summary       |              Filename             |
+-----------------------------------------------------------------------+
|SU2 binary restart                 |restart_flow_databladeVALIDATION_Blade_14.dat|
|                                   |                     (13974.4 MB/s)|
|Paraview                           |volume_flow_databladeVALIDATION_Blade_14.vtu|
|                                   |                     (1079.96 MB/s)|
|Paraview surface                   |surface_flowdatabladeVALIDATION_Blade_14.vtu|
|                                   |                     (84.3873 MB/s)|
|SU2 ASCII restart                  |restart_flow_databladeVALIDATION_Blade_14.csv|
|                                   |                      (21.292 MB/s)|
|CSV file                           |surface_flowdatabladeVALIDATION_Blade_14.csv|
|                                   |                     (20.5565 MB/s)|
+-----------------------------------------------------------------------+
+--------------------------------------+
|  Inner_Iter|   Time(sec)|    rms[Rho]|
+--------------------------------------+
|        2210|  1.2248e-01|   -6.154549|
|        2220|  1.2223e-01|   -6.203008|
|        2230|  1.2200e-01|   -6.196906|
|        2240|  1.2180e-01|   -6.142758|
|        2250|  1.2154e-01|   -6.210168|
+-----------------------------------------------------------------------+
|        File Writing Summary       |              Filename             |
+-----------------------------------------------------------------------+
|SU2 binary restart                 |restart_flow_databladeVALIDATION_Blade_14.dat|
|                                   |                     (11800.8 MB/s)|
|Paraview                           |volume_flow_databladeVALIDATION_Blade_14.vtu|
|                                   |                     (978.597 MB/s)|
|Paraview surface                   |surface_flowdatabladeVALIDATION_Blade_14.vtu|
|                                   |                     (91.9298 MB/s)|
|SU2 ASCII restart                  |restart_flow_databladeVALIDATION_Blade_14.csv|
|                                   |                     (21.0506 MB/s)|
|CSV file                           |surface_flowdatabladeVALIDATION_Blade_14.csv|
|                                   |                     (21.9536 MB/s)|
+-----------------------------------------------------------------------+
+--------------------------------------+
|  Inner_Iter|   Time(sec)|    rms[Rho]|
+--------------------------------------+
|        2260|  1.2234e-01|   -6.221086|
|        2270|  1.2213e-01|   -6.149589|
|        2280|  1.2192e-01|   -6.169376|
|        2290|  1.2166e-01|   -6.195607|
|        2300|  1.2151e-01|   -6.115219|
+-----------------------------------------------------------------------+
|        File Writing Summary       |              Filename             |
+-----------------------------------------------------------------------+
|SU2 binary restart                 |restart_flow_databladeVALIDATION_Blade_14.dat|
|                                   |                     (12350.4 MB/s)|
|Paraview                           |volume_flow_databladeVALIDATION_Blade_14.vtu|
|                                   |                     (956.196 MB/s)|
|Paraview surface                   |surface_flowdatabladeVALIDATION_Blade_14.vtu|
|                                   |                     (104.321 MB/s)|
|SU2 ASCII restart                  |restart_flow_databladeVALIDATION_Blade_14.csv|
|                                   |                     (21.2352 MB/s)|
|CSV file                           |surface_flowdatabladeVALIDATION_Blade_14.csv|
|                                   |                     (19.1764 MB/s)|
+-----------------------------------------------------------------------+
+--------------------------------------+
|  Inner_Iter|   Time(sec)|    rms[Rho]|
+--------------------------------------+
|        2310|  1.2232e-01|   -6.184904|
|        2320|  1.2205e-01|   -6.259906|
|        2330|  1.2184e-01|   -6.249671|
|        2340|  1.2163e-01|   -6.269879|
|        2350|  1.2138e-01|   -6.341013|
+-----------------------------------------------------------------------+
|        File Writing Summary       |              Filename             |
+-----------------------------------------------------------------------+
|SU2 binary restart                 |restart_flow_databladeVALIDATION_Blade_14.dat|
|                                   |                     (11520.2 MB/s)|
|Paraview                           |volume_flow_databladeVALIDATION_Blade_14.vtu|
[...]
+-----------------------------------------------------------------------+
|SU2 binary restart                 |restart_flow_databladeVALIDATION_Blade_14.dat|
|                                   |                     (12868.5 MB/s)|
|Paraview                           |volume_flow_databladeVALIDATION_Blade_14.vtu|
|                                   |                     (893.047 MB/s)|
|Paraview surface                   |surface_flowdatabladeVALIDATION_Blade_14.vtu|
|                                   |                     (75.7322 MB/s)|
|SU2 ASCII restart                  |restart_flow_databladeVALIDATION_Blade_14.csv|
|                                   |                     (20.9469 MB/s)|
|CSV file                           |surface_flowdatabladeVALIDATION_Blade_14.csv|
|                                   |                     (20.3227 MB/s)|
+-----------------------------------------------------------------------+
+--------------------------------------+
|  Inner_Iter|   Time(sec)|    rms[Rho]|
+--------------------------------------+
|        2460|  1.2205e-01|   -6.510162|
|        2470|  1.2183e-01|   -6.463387|
|        2480|  1.2164e-01|   -6.453275|
|        2490|  1.2146e-01|   -6.497887|
|        2500|  1.2122e-01|   -6.510631|
+-----------------------------------------------------------------------+
|        File Writing Summary       |              Filename             |
+-----------------------------------------------------------------------+
|SU2 binary restart                 |restart_flow_databladeVALIDATION_Blade_14.dat|
|                                   |                     (12353.2 MB/s)|
|Paraview                           |volume_flow_databladeVALIDATION_Blade_14.vtu|
|                                   |                     (1048.56 MB/s)|
|Paraview surface                   |surface_flowdatabladeVALIDATION_Blade_14.vtu|
|                                   |                     (100.352 MB/s)|
|SU2 ASCII restart                  |restart_flow_databladeVALIDATION_Blade_14.csv|
|                                   |                     (21.6151 MB/s)|
|CSV file                           |surface_flowdatabladeVALIDATION_Blade_14.csv|
|                                   |                     (20.6582 MB/s)|
+-----------------------------------------------------------------------+
+--------------------------------------+
|  Inner_Iter|   Time(sec)|    rms[Rho]|
+--------------------------------------+
|        2510|  1.2193e-01|   -6.408716|
|        2520|  1.2175e-01|   -6.423568|
|        2530|  1.2153e-01|   -6.446225|
|        2540|  1.2132e-01|   -6.423538|
|        2550|  1.2111e-01|   -6.504247|
+-----------------------------------------------------------------------+
|        File Writing Summary       |              Filename             |
+-----------------------------------------------------------------------+
|SU2 binary restart                 |restart_flow_databladeVALIDATION_Blade_14.dat|
|                                   |                     (11874.2 MB/s)|
|Paraview                           |volume_flow_databladeVALIDATION_Blade_14.vtu|
|                                   |                     (1020.77 MB/s)|
|Paraview surface                   |surface_flowdatabladeVALIDATION_Blade_14.vtu|
|                                   |                     (95.8859 MB/s)|
|SU2 ASCII restart                  |restart_flow_databladeVALIDATION_Blade_14.csv|
|                                   |                     (21.4876 MB/s)|
|CSV file                           |surface_flowdatabladeVALIDATION_Blade_14.csv|
|                                   |                     (19.6251 MB/s)|
+-----------------------------------------------------------------------+
+--------------------------------------+
|  Inner_Iter|   Time(sec)|    rms[Rho]|
+--------------------------------------+
|        2560|  1.2180e-01|   -6.567761|
|        2570|  1.2159e-01|   -6.548041|
|        2580|  1.2140e-01|   -6.559826|
|        2590|  1.2120e-01|   -6.601954|
|        2600|  1.2098e-01|   -6.605249|
+-----------------------------------------------------------------------+
|        File Writing Summary       |              Filename             |
+-----------------------------------------------------------------------+
|SU2 binary restart                 |restart_flow_databladeVALIDATION_Blade_14.dat|
|                                   |                     (11929.2 MB/s)|
|Paraview                           |volume_flow_databladeVALIDATION_Blade_14.vtu|
|                                   |                     (970.938 MB/s)|
|Paraview surface                   |surface_flowdatabladeVALIDATION_Blade_14.vtu|
|                                   |                      (101.28 MB/s)|
|SU2 ASCII restart                  |restart_flow_databladeVALIDATION_Blade_14.csv|
|                                   |                     (20.6101 MB/s)|
|CSV file                           |surface_flowdatabladeVALIDATION_Blade_14.csv|
|                                   |                     (21.6834 MB/s)|
+-----------------------------------------------------------------------+
+--------------------------------------+
|  Inner_Iter|   Time(sec)|    rms[Rho]|
+--------------------------------------+
|        2610|  1.2171e-01|   -6.521752|
|        2620|  1.2153e-01|   -6.533651|
|        2630|  1.2132e-01|   -6.552829|
|        2640|  1.2121e-01|   -6.500877|
|        2650|  1.2105e-01|   -6.449641|
+-----------------------------------------------------------------------+
|        File Writing Summary       |              Filename             |
+-----------------------------------------------------------------------+
|SU2 binary restart                 |restart_flow_databladeVALIDATION_Blade_14.dat|
|                                   |                     (14147.4 MB/s)|
|Paraview                           |volume_flow_databladeVALIDATION_Blade_14.vtu|
|                                   |                        (1030 MB/s)|
|Paraview surface                   |surface_flowdatabladeVALIDATION_Blade_14.vtu|
|                                   |                     (106.675 MB/s)|
|SU2 ASCII restart                  |restart_flow_databladeVALIDATION_Blade_14.csv|
|                                   |                     (21.4697 MB/s)|
|CSV file                           |surface_flowdatabladeVALIDATION_Blade_14.csv|
|                                   |                     (19.3496 MB/s)|
+-----------------------------------------------------------------------+
+--------------------------------------+
|  Inner_Iter|   Time(sec)|    rms[Rho]|
+--------------------------------------+
|        2660|  1.2175e-01|   -6.565472|
|        2670|  1.2154e-01|   -6.618225|
|        2680|  1.2135e-01|   -6.629242|
|        2690|  1.2120e-01|   -6.652407|
|        2700|  1.2100e-01|   -6.719578|
+-----------------------------------------------------------------------+
|        File Writing Summary       |              Filename             |
+-----------------------------------------------------------------------+
|SU2 binary restart                 |restart_flow_databladeVALIDATION_Blade_14.dat|
|                                   |                     (9317.06 MB/s)|
|Paraview                           |volume_flow_databladeVALIDATION_Blade_14.vtu|
|                                   |                     (942.473 MB/s)|
|Paraview surface                   |surface_flowdatabladeVALIDATION_Blade_14.vtu|
|                                   |                     (79.9861 MB/s)|
|SU2 ASCII restart                  |restart_flow_databladeVALIDATION_Blade_14.csv|
|                                   |                      (21.552 MB/s)|
|CSV file                           |surface_flowdatabladeVALIDATION_Blade_14.csv|
|                                   |                     (21.0664 MB/s)|
+-----------------------------------------------------------------------+
+--------------------------------------+
|  Inner_Iter|   Time(sec)|    rms[Rho]|
+--------------------------------------+
|        2710|  1.2162e-01|   -6.734383|
|        2720|  1.2142e-01|   -6.671441|
|        2730|  1.2123e-01|   -6.689265|
|        2740|  1.2101e-01|   -6.704395|
|        2750|  1.2084e-01|   -6.607892|
+-----------------------------------------------------------------------+
|        File Writing Summary       |              Filename             |
+-----------------------------------------------------------------------+
|SU2 binary restart                 |restart_flow_databladeVALIDATION_Blade_14.dat|
|                                   |                     (12475.7 MB/s)|
|Paraview                           |volume_flow_databladeVALIDATION_Blade_14.vtu|
|                                   |                     (1064.34 MB/s)|
|Paraview surface                   |surface_flowdatabladeVALIDATION_Blade_14.vtu|
|                                   |                      (81.677 MB/s)|
|SU2 ASCII restart                  |restart_flow_databladeVALIDATION_Blade_14.csv|
|                                   |                     (21.2705 MB/s)|
|CSV file                           |surface_flowdatabladeVALIDATION_Blade_14.csv|
|                                   |                     (21.7751 MB/s)|
+-----------------------------------------------------------------------+
+--------------------------------------+
|  Inner_Iter|   Time(sec)|    rms[Rho]|
+--------------------------------------+
|        2760|  1.2149e-01|   -6.636374|
|        2770|  1.2126e-01|   -6.704933|
|        2780|  1.2107e-01|   -6.702385|
|        2790|  1.2089e-01|   -6.692726|
|        2800|  1.2069e-01|   -6.786290|
+-----------------------------------------------------------------------+
|        File Writing Summary       |              Filename             |
+-----------------------------------------------------------------------+
|SU2 binary restart                 |restart_flow_databladeVALIDATION_Blade_14.dat|
|                                   |                     (9637.99 MB/s)|
|Paraview                           |volume_flow_databladeVALIDATION_Blade_14.vtu|
|                                   |                     (1069.53 MB/s)|
|Paraview surface                   |surface_flowdatabladeVALIDATION_Blade_14.vtu|
|                                   |                     (95.7564 MB/s)|
|SU2 ASCII restart                  |restart_flow_databladeVALIDATION_Blade_14.csv|
|                                   |                     (21.3559 MB/s)|
|CSV file                           |surface_flowdatabladeVALIDATION_Blade_14.csv|
|                                   |                     (21.4182 MB/s)|
+-----------------------------------------------------------------------+
+--------------------------------------+
|  Inner_Iter|   Time(sec)|    rms[Rho]|
+--------------------------------------+
|        2810|  1.2133e-01|   -6.840615|
|        2820|  1.2119e-01|   -6.772286|
|        2830|  1.2101e-01|   -6.777340|
|        2840|  1.2087e-01|   -6.798841|
|        2850|  1.2069e-01|   -6.824419|
+-----------------------------------------------------------------------+
|        File Writing Summary       |              Filename             |
+-----------------------------------------------------------------------+
|SU2 binary restart                 |restart_flow_databladeVALIDATION_Blade_14.dat|
|                                   |                     (10871.9 MB/s)|
|Paraview                           |volume_flow_databladeVALIDATION_Blade_14.vtu|
|                                   |                     (892.169 MB/s)|
|Paraview surface                   |surface_flowdatabladeVALIDATION_Blade_14.vtu|
|                                   |                     (81.9491 MB/s)|
|SU2 ASCII restart                  |restart_flow_databladeVALIDATION_Blade_14.csv|
|                                   |                      (20.941 MB/s)|
|CSV file                           |surface_flowdatabladeVALIDATION_Blade_14.csv|
|                                   |                     (19.4066 MB/s)|
+-----------------------------------------------------------------------+
+--------------------------------------+
|  Inner_Iter|   Time(sec)|    rms[Rho]|
+--------------------------------------+
|        2860|  1.2135e-01|   -6.808751|
|        2870|  1.2115e-01|   -6.774675|
|        2880|  1.2099e-01|   -6.777255|
|        2890|  1.2078e-01|   -6.841280|
|        2900|  1.2061e-01|   -6.834780|
+-----------------------------------------------------------------------+
|        File Writing Summary       |              Filename             |
+-----------------------------------------------------------------------+
|SU2 binary restart                 |restart_flow_databladeVALIDATION_Blade_14.dat|
|                                   |                     (11410.8 MB/s)|
|Paraview                           |volume_flow_databladeVALIDATION_Blade_14.vtu|
|                                   |                     (998.979 MB/s)|
|Paraview surface                   |surface_flowdatabladeVALIDATION_Blade_14.vtu|
|                                   |                     (94.7181 MB/s)|
|SU2 ASCII restart                  |restart_flow_databladeVALIDATION_Blade_14.csv|
|                                   |                     (20.9637 MB/s)|
|CSV file                           |surface_flowdatabladeVALIDATION_Blade_14.csv|
|                                   |                     (18.9841 MB/s)|
+-----------------------------------------------------------------------+
+--------------------------------------+
|  Inner_Iter|   Time(sec)|    rms[Rho]|
+--------------------------------------+
|        2910|  1.2126e-01|   -6.841456|
|        2920|  1.2106e-01|   -6.912571|
|        2930|  1.2085e-01|   -6.924520|
|        2940|  1.2071e-01|   -6.853858|
|        2950|  1.2051e-01|   -6.917677|
+-----------------------------------------------------------------------+
|        File Writing Summary       |              Filename             |
+-----------------------------------------------------------------------+
|SU2 binary restart                 |restart_flow_databladeVALIDATION_Blade_14.dat|
|                                   |                     (11983.8 MB/s)|
|Paraview                           |volume_flow_databladeVALIDATION_Blade_14.vtu|
|                                   |                     (980.792 MB/s)|
|Paraview surface                   |surface_flowdatabladeVALIDATION_Blade_14.vtu|
|                                   |                     (71.6622 MB/s)|
|SU2 ASCII restart                  |restart_flow_databladeVALIDATION_Blade_14.csv|
|                                   |                     (21.8823 MB/s)|
|CSV file                           |surface_flowdatabladeVALIDATION_Blade_14.csv|
|                                   |                     (20.7873 MB/s)|
+-----------------------------------------------------------------------+
+--------------------------------------+
|  Inner_Iter|   Time(sec)|    rms[Rho]|
+--------------------------------------+
|        2960|  1.2106e-01|   -6.904139|
|        2970|  1.2089e-01|   -6.857231|
|        2980|  1.2072e-01|   -6.846308|
|        2990|  1.2060e-01|   -6.821220|
|        3000|  1.2045e-01|   -6.905364|
+-----------------------------------------------------------------------+
|        File Writing Summary       |              Filename             |
+-----------------------------------------------------------------------+
|SU2 binary restart                 |restart_flow_databladeVALIDATION_Blade_14.dat|
|                                   |                     (11786.2 MB/s)|
|Paraview                           |volume_flow_databladeVALIDATION_Blade_14.vtu|
|                                   |                     (1022.37 MB/s)|
|Paraview surface                   |surface_flowdatabladeVALIDATION_Blade_14.vtu|
|                                   |                     (114.026 MB/s)|
|SU2 ASCII restart                  |restart_flow_databladeVALIDATION_Blade_14.csv|
|                                   |                     (21.2949 MB/s)|
|CSV file                           |surface_flowdatabladeVALIDATION_Blade_14.csv|
|                                   |                     (20.3392 MB/s)|
+-----------------------------------------------------------------------+
+--------------------------------------+
|  Inner_Iter|   Time(sec)|    rms[Rho]|
+--------------------------------------+
|        3010|  1.2103e-01|   -6.960009|
|        3020|  1.2083e-01|   -6.990854|
|        3030|  1.2067e-01|   -6.957804|
|        3036|  1.2055e-01|   -7.002595|

----------------------------- Solver Exit -------------------------------
All convergence criteria satisfied.
+-----------------------------------------------------------------------+
|      Convergence Field     |     Value    |   Criterion  |  Converged |
+-----------------------------------------------------------------------+
|                    rms[Rho]|       -7.0026|          < -7|         Yes|
+-----------------------------------------------------------------------+
-------------------------------------------------------------------------
+-----------------------------------------------------------------------+
|        File Writing Summary       |              Filename             |
+-----------------------------------------------------------------------+
|SU2 binary restart                 |restart_flow_databladeVALIDATION_Blade_14.dat|
|                                   |                     (9430.21 MB/s)|
|Paraview                           |volume_flow_databladeVALIDATION_Blade_14.vtu|
|                                   |                     (989.837 MB/s)|
|Paraview surface                   |surface_flowdatabladeVALIDATION_Blade_14.vtu|
|                                   |                     (94.5732 MB/s)|
|SU2 ASCII restart                  |restart_flow_databladeVALIDATION_Blade_14.csv|
|                                   |                     (20.7296 MB/s)|
|CSV file                           |surface_flowdatabladeVALIDATION_Blade_14.csv|
|                                   |                     (19.6328 MB/s)|
+-----------------------------------------------------------------------+

--------------------------- Finalizing Solver ---------------------------
Deleted CNumerics container.
Deleted CIntegration container.
Deleted CSolver container.
Deleted CIteration container.
Deleted CInterface container.
Deleted CGeometry container.
Deleted CFreeFormDefBox class.
Deleted CSurfaceMovement class.
Deleted CVolumetricMovement class.
Deleted CConfig container.
Deleted nInst container.
Deleted COutput class.
-------------------------------------------------------------------------


-------------------------- Performance Summary --------------------------
Simulation totals:
   Wall-clock time (hrs):    0.102513 |            Core-hrs:     1.23016
                   Cores:          12 |          DOFs/point:           5
             Points/core:     5118.42 |   Ghost points/core:     142.417
 Ghost/Owned Point Ratio:   0.0278244 | 

Preprocessing phase:
       Preproc. Time (s):    0.551114 |   Preproc. Time (%):    0.149334

Compute phase:
        Compute Time (s):     366.107 |    Compute Time (%):     99.2032
         Iteration count:        3037 |         Avg. s/iter:    0.120549
     Core-s/iter/Mpoints:     22.9144 |           Mpoints/s:    0.523688

Output phase:
         Output Time (s):     2.38931 |     Output Time (%):    0.647426
            Output count:           1 |       Avg. s/output:     2.38931
 Restart Aggr. BW (MB/s):      679886 |           MB/s/core:     56657.1
-------------------------------------------------------------------------


------------------------- Exit Success (SU2_CFD) ------------------------

