
-------------------------------------------------------------------------
|    ___ _   _ ___                                                      |
|   / __| | | |_  )   Release 8.0.1 "Harrier"                           |
|   \__ \ |_| |/ /                                                      |
|   |___/\___//___|   Suite (Computational Fluid Dynamics Code)         |
|                                                                       |
-------------------------------------------------------------------------
| SU2 Project Website: https://su2code.github.io                        |
|                                                                       |
| The SU2 Project is maintained by the SU2 Foundation                   |
| (http://su2foundation.org)                                            |
-------------------------------------------------------------------------
| Copyright 2012-2024, SU2 Contributors                                 |
|                                                                       |
| SU2 is free software; you can redistribute it and/or                  |
| modify it under the terms of the GNU Lesser General Public            |
| License as published by the Free Software Foundation; either          |
| version 2.1 of the License, or (at your option) any later version.    |
|                                                                       |
| SU2 is distributed in the hope that it will be useful,                |
| but WITHOUT ANY WARRANTY; without even the implied warranty of        |
| MERCHANTABILITY or FITNESS FOR A PARTICULAR PURPOSE. See the GNU      |
| Lesser General Public License for more details.                       |
|                                                                       |
| You should have received a copy of the GNU Lesser General Public      |
| License along with SU2. If not, see <http://www.gnu.org/licenses/>.   |
-------------------------------------------------------------------------

Parsing config file for zone 0

----------------- Physical Case Definition ( Zone 0 ) -------------------
Compressible RANS equations.
Turbulence model: Spalart-Allmaras-noft2-BCM
Hybrid RANS/LES: No Hybrid RANS/LES
Mach number: 0.5.
Angle of attack (AoA): -40 deg, and angle of sideslip (AoS): 0 deg.
Reynolds number: 600000. Reference length 1.0014.
No restart solution, use the values at infinity (freestream).
Dimensional simulation.
The reference area will be computed using y(2D) or z(3D) projection.
The semi-span will be computed using the max y(3D) value.
The reference length is 1.0014 m.
Reference origin for moment evaluation is (0, 0, 0).
Surface(s) where the force coefficients are evaluated: blade1.

Surface(s) plotted in the output file: blade1.
Surface(s) to be analyzed in detail: inlet, outlet, blade1.
Input mesh file name: cascade2D_databladeVALIDATION_Blade_14.su2

--------------- Space Numerical Integration ( Zone 0 ) ------------------
Jameson-Schmidt-Turkel scheme (2nd order in space) for the flow inviscid terms.
JST viscous coefficients (2nd & 4th): 0.5, 0.02.
The method includes a grid stretching correction (p = 0.3).
Scalar upwind solver for the turbulence model.
First order integration in space.
Average of gradients with correction (viscous flow terms).
Average of gradients with correction (viscous turbulence terms).
Gradient for upwind reconstruction: inverse-distance weighted Least-Squares.
Gradient for viscous and source terms: inverse-distance weighted Least-Squares.

--------------- Time Numerical Integration  ( Zone 0 ) ------------------
Local time stepping (steady state simulation).
Euler implicit method for the flow equations.
FGMRES is used for solving the linear system.
Using a LU-SGS preconditioning.
Convergence criteria of the linear solver: 0.0001.
Max number of linear iterations: 10.
V Multigrid Cycle, with 3 multigrid levels.
Damping factor for the residual restriction: 0.75.
Damping factor for the correction prolongation: 0.75.
CFL adaptation. Factor down: 0.1, factor up: 1.2,
                lower limit: 0.1, upper limit: 100,
                acceptable linear residual: 0.001.
+-------------------------------------------+
|  MG Level| Presmooth|PostSmooth|CorrectSmo|
+-------------------------------------------+
|         0|         1|         0|         1|
|         1|         2|         2|         2|
|         2|         3|         3|         3|
|         3|         3|         0|         0|
+-------------------------------------------+
Courant-Friedrichs-Lewy number:       12
Euler implicit time integration for the turbulence model.

------------------ Convergence Criteria  ( Zone 0 ) ---------------------
Maximum number of solver subiterations: 7000.
Begin convergence monitoring at iteration 500.
Residual minimum value: 1e-7.
Cauchy series min. value: 1e-10.
Number of Cauchy elements: 100.
Begin windowed time average at iteration 0.

-------------------- Output Information ( Zone 0 ) ----------------------
File writing frequency: 
+------------------------------------+
|                     File| Frequency|
+------------------------------------+
|                  RESTART|        50|
|                 PARAVIEW|        50|
|         SURFACE_PARAVIEW|        50|
|                      CSV|        50|
|              SURFACE_CSV|        50|
+------------------------------------+
Writing the convergence history file every 1 inner iterations.
Writing the screen convergence history every 10 inner iterations.
The tabular file format is CSV (.csv).
Convergence history file name: history_databladeVALIDATION_Blade_14.
Forces breakdown file name: forces_breakdown.dat.
Surface file name: surface_flowdatabladeVALIDATION_Blade_14.
Volume file name: volume_flow_databladeVALIDATION_Blade_14.
Restart file name: restart_flow_databladeVALIDATION_Blade_14.dat.

------------- Config File Boundary Information ( Zone 0 ) ---------------
+-----------------------------------------------------------------------+
|                        Marker Type|                        Marker Name|
+-----------------------------------------------------------------------+
|                  Periodic boundary|               symmetricWallsBOTTOM|
|                                   |                  symmetricWallsTOP|
+-----------------------------------------------------------------------+
|                     Inlet boundary|                              inlet|
+-----------------------------------------------------------------------+
|                    Outlet boundary|                             outlet|
+-----------------------------------------------------------------------+
|                     Heat flux wall|                             blade1|
|                                   |                             blade2|
+-----------------------------------------------------------------------+

-------------------- Output Preprocessing ( Zone 0 ) --------------------
  Info: Ignoring the following screen output fields:
  LINSOL_ITER_TRANS, LINSOL_RESIDUAL_TRANS
Screen output fields: INNER_ITER, CUR_TIME, RMS_DENSITY
  Info: Ignoring the following history output groups:
  RMS_TKE, RMS_DISSIPATION
History output group(s): INNER_ITER, WALL_TIME, RMS_DENSITY, RMS_MOMENTUM-X, RMS_ENERGY, LINSOL, CFL_NUMBER, FLOW_COEFF_SURF, AERO_COEFF_SURF
Convergence field(s): RMS_DENSITY
Warning: No (valid) fields chosen for time convergence monitoring. Time convergence monitoring inactive.
Volume output fields: COORDINATES, SOLUTION, PRIMITIVE, RESIDUAL, TIMESTEP, MESH_QUALITY, VORTEX_IDENTIFICATION

------------------- Geometry Preprocessing ( Zone 0 ) -------------------
Two dimensional problem.
87425 grid points before partitioning.
128647 volume elements before partitioning.
5 surface markers.
39 boundary elements in index 0 (Marker = inlet).
362 boundary elements in index 1 (Marker = symmetricWallsBOTTOM).
362 boundary elements in index 2 (Marker = symmetricWallsTOP).
39 boundary elements in index 3 (Marker = outlet).
1816 boundary elements in index 4 (Marker = blade1).
Executing the partitioning functions.
Building the graph adjacency structure.
Calling ParMETIS... graph partitioning complete (1649 edge cuts).
Distributing ParMETIS coloring.
Rebalancing vertices.
Rebalancing volume element connectivity.
Rebalancing markers and surface elements.
89447 vertices including ghost points. 
130286 interior elements including halo cells. 
86342 triangles.
43944 quadrilaterals.
Establishing MPI communication patterns.
Setting point connectivity.
Renumbering points (Reverse Cuthill McKee Ordering).
Recomputing point connectivity.
Setting element connectivity.
Checking the numerical grid orientation.
All volume elements are correctly orientend.
There has been a re-orientation of 1318 LINE surface elements.
Identifying edges and vertices.
Setting the control volume structure.
Area of the computational grid: 3.35854.
Searching for the closest normal neighbors to the surfaces.
Storing a mapping from global to local point index.
Compute the surface curvature.
Max K: 199.529. Mean K: 4.72546. Standard deviation K: 15.2985.
Checking for periodicity.
WARNING: Periodicity has been detected. Disabling multigrid. 
Computing mesh quality statistics for the dual control volumes.
+--------------------------------------------------------------+
|           Mesh Quality Metric|        Minimum|        Maximum|
+--------------------------------------------------------------+
|    Orthogonality Angle (deg.)|        35.3469|             90|
|     CV Face Area Aspect Ratio|        1.00014|        190.256|
|           CV Sub-Volume Ratio|              1|        31.5005|
+--------------------------------------------------------------+
Finding max control volume width.
Communicating number of neighbors.
Reference length = 1.02129 m.
Wetted area = 2.95123 m.
Area projection in the x-plane = 0.896409 m, y-plane = 1.02129 m.
Max. coordinate in the x-direction = 1.01342 m, y-direction = 0.578707 m.
Min. coordinate in the x-direction = -0.00787529 m, y-direction = -0.300563 m.
Matching the periodic boundary points for marker pair 1.
 Matched 726 points with a max distance of: 1.16576e-13.
Computing wall distances.

-------------------- Solver Preprocessing ( Zone 0 ) --------------------
Viscous flow: Computing pressure using the ideal gas law
based on the free-stream temperature and a density computed
from the Reynolds number.
Force coefficients computed using free-stream values.

-- Models:
+------------------------------------------------------------------------------+
|          Viscosity Model|        Conductivity Model|              Fluid Model|
+------------------------------------------------------------------------------+
|               SUTHERLAND|          CONSTANT_PRANDTL|                IDEAL_GAS|
+------------------------------------------------------------------------------+
-- Fluid properties:
+------------------------------------------------------------------------------+
|                  Name|    Dim. value|    Ref. value|      Unit|Non-dim. value|
+------------------------------------------------------------------------------+
|        Ref. Viscosity|     1.716e-05|             1|   N.s/m^2|     1.716e-05|
|      Sutherland Temp.|        273.15|             1|         K|        273.15|
|     Sutherland Const.|         110.4|             1|         K|         110.4|
+------------------------------------------------------------------------------+
|        Prandtl (Lam.)|             -|             -|         -|          0.72|
|       Prandtl (Turb.)|             -|             -|         -|           0.9|
+------------------------------------------------------------------------------+
|          Gas Constant|       287.058|             1|  N.m/kg.K|       287.058|
|      Spec. Heat Ratio|             -|             -|         -|           1.4|
+------------------------------------------------------------------------------+
-- Initial and free-stream conditions:
+------------------------------------------------------------------------------+
|                  Name|    Dim. value|    Ref. value|      Unit|Non-dim. value|
+------------------------------------------------------------------------------+
|       Static Pressure|       5486.12|             1|        Pa|       5486.12|
|               Density|     0.0637052|             1|    kg/m^3|     0.0637052|
|           Temperature|           300|             1|         K|           300|
|          Total Energy|        230364|             1|   m^2/s^2|        230364|
|            Velocity-X|       132.994|             1|       m/s|       132.994|
|            Velocity-Y|      -111.596|             1|       m/s|      -111.596|
|    Velocity Magnitude|       173.612|             1|       m/s|       173.612|
+------------------------------------------------------------------------------+
|             Viscosity|   1.84592e-05|             1|   N.s/m^2|   1.84592e-05|
|          Conductivity|             -|             1|   W/m^2.K|             -|
|     Turb. Kin. Energy|       55.3843|             1|   m^2/s^2|       55.3843|
|     Spec. Dissipation|   1.91139e+06|             1|       1/s|   1.91139e+06|
+------------------------------------------------------------------------------+
|           Mach Number|             -|             -|         -|           0.5|
|       Reynolds Number|             -|             -|         -|        600000|
+------------------------------------------------------------------------------+
Initialize Jacobian structure (Navier-Stokes). MG level: 0.
Initialize Jacobian structure (SA model).

------------------- Numerics Preprocessing ( Zone 0 ) -------------------

----------------- Integration Preprocessing ( Zone 0 ) ------------------

------------------- Iteration Preprocessing ( Zone 0 ) ------------------
Euler/Navier-Stokes/RANS fluid iteration.

------------------------------ Begin Solver -----------------------------

Simulation Run using the Single-zone Driver
WARNING: SU2 was not compiled for an AVX-capable architecture. Performance could be better,
         see https://su2code.github.io/docs_v7/Build-SU2-Linux-MacOS/#compiler-optimizations
+--------------------------------------+
|  Inner_Iter|    Cur_Time|    rms[Rho]|
+--------------------------------------+
|           0|  0.0000e+00|   -2.645804|
|          10|  0.0000e+00|   -3.270826|
|          20|  0.0000e+00|   -3.046575|
|          30|  0.0000e+00|   -3.070134|
|          40|  0.0000e+00|   -3.001643|
|          50|  0.0000e+00|   -2.961620|
+-----------------------------------------------------------------------+
|        File Writing Summary       |              Filename             |
+-----------------------------------------------------------------------+
|SU2 binary restart                 |restart_flow_databladeVALIDATION_Blade_14.dat|
|                                   |                     (15192.1 MB/s)|
|Paraview                           |volume_flow_databladeVALIDATION_Blade_14.vtu|
|                                   |                     (1335.21 MB/s)|
|Paraview surface                   |surface_flowdatabladeVALIDATION_Blade_14.vtu|
|                                   |                     (140.574 MB/s)|
|SU2 ASCII restart                  |restart_flow_databladeVALIDATION_Blade_14.csv|
|                                   |                     (22.1493 MB/s)|
|CSV file                           |surface_flowdatabladeVALIDATION_Blade_14.csv|
|                                   |                      (21.574 MB/s)|
+-----------------------------------------------------------------------+
+--------------------------------------+
|  Inner_Iter|    Cur_Time|    rms[Rho]|
+--------------------------------------+
|          60|  0.0000e+00|   -3.016493|
|          70|  0.0000e+00|   -3.169833|
|          80|  0.0000e+00|   -3.206081|
|          90|  0.0000e+00|   -3.136538|
|         100|  0.0000e+00|   -2.998094|
+-----------------------------------------------------------------------+
|        File Writing Summary       |              Filename             |
+-----------------------------------------------------------------------+
|SU2 binary restart                 |restart_flow_databladeVALIDATION_Blade_14.dat|
|                                   |                     (16740.5 MB/s)|
|Paraview                           |volume_flow_databladeVALIDATION_Blade_14.vtu|
|                                   |                     (1473.62 MB/s)|
|Paraview surface                   |surface_flowdatabladeVALIDATION_Blade_14.vtu|
|                                   |                     (164.441 MB/s)|
|SU2 ASCII restart                  |restart_flow_databladeVALIDATION_Blade_14.csv|
|                                   |                     (22.2703 MB/s)|
|CSV file                           |surface_flowdatabladeVALIDATION_Blade_14.csv|
|                                   |                     (22.6714 MB/s)|
+-----------------------------------------------------------------------+
+--------------------------------------+
|  Inner_Iter|    Cur_Time|    rms[Rho]|
+--------------------------------------+
|         110|  0.0000e+00|   -3.115724|
|         120|  0.0000e+00|   -3.107601|
|         130|  0.0000e+00|   -3.025807|
|         140|  0.0000e+00|   -3.070772|
|         150|  0.0000e+00|   -3.114732|
+-----------------------------------------------------------------------+
|        File Writing Summary       |              Filename             |
+-----------------------------------------------------------------------+
|SU2 binary restart                 |restart_flow_databladeVALIDATION_Blade_14.dat|
|                                   |                     (15573.2 MB/s)|
|Paraview                           |volume_flow_databladeVALIDATION_Blade_14.vtu|
|                                   |                     (1452.45 MB/s)|
|Paraview surface                   |surface_flowdatabladeVALIDATION_Blade_14.vtu|
|                                   |                     (135.364 MB/s)|
|SU2 ASCII restart                  |restart_flow_databladeVALIDATION_Blade_14.csv|
|                                   |                     (22.0818 MB/s)|
|CSV file                           |surface_flowdatabladeVALIDATION_Blade_14.csv|
|                                   |                     (20.4636 MB/s)|
+-----------------------------------------------------------------------+
+--------------------------------------+
|  Inner_Iter|    Cur_Time|    rms[Rho]|
+--------------------------------------+
|         160|  0.0000e+00|   -3.147284|
|         170|  0.0000e+00|   -3.260338|
|         180|  0.0000e+00|   -3.334545|
|         190|  0.0000e+00|   -3.313825|
|         200|  0.0000e+00|   -3.297834|
+-----------------------------------------------------------------------+
|        File Writing Summary       |              Filename             |
+-----------------------------------------------------------------------+
|SU2 binary restart                 |restart_flow_databladeVALIDATION_Blade_14.dat|
|                                   |                     (100.788 MB/s)|
|Paraview                           |volume_flow_databladeVALIDATION_Blade_14.vtu|
|                                   |                     (1536.72 MB/s)|
|Paraview surface                   |surface_flowdatabladeVALIDATION_Blade_14.vtu|
|                                   |                      (147.05 MB/s)|
|SU2 ASCII restart                  |restart_flow_databladeVALIDATION_Blade_14.csv|
|                                   |                     (22.5298 MB/s)|
|CSV file                           |surface_flowdatabladeVALIDATION_Blade_14.csv|
|                                   |                     (22.6983 MB/s)|
+-----------------------------------------------------------------------+
+--------------------------------------+
|  Inner_Iter|    Cur_Time|    rms[Rho]|
+--------------------------------------+
|         210|  0.0000e+00|   -3.350985|
|         220|  0.0000e+00|   -3.366343|
|         230|  0.0000e+00|   -3.331254|
|         240|  0.0000e+00|   -3.361726|
|         250|  0.0000e+00|   -3.431134|
+-----------------------------------------------------------------------+
|        File Writing Summary       |              Filename             |
+-----------------------------------------------------------------------+
|SU2 binary restart                 |restart_flow_databladeVALIDATION_Blade_14.dat|
|                                   |                       (19296 MB/s)|
|Paraview                           |volume_flow_databladeVALIDATION_Blade_14.vtu|
|                                   |                     (1324.46 MB/s)|
|Paraview surface                   |surface_flowdatabladeVALIDATION_Blade_14.vtu|
|                                   |                     (142.525 MB/s)|
|SU2 ASCII restart                  |restart_flow_databladeVALIDATION_Blade_14.csv|
|                                   |                     (22.3272 MB/s)|
|CSV file                           |surface_flowdatabladeVALIDATION_Blade_14.csv|
|                                   |                     (22.7796 MB/s)|
+-----------------------------------------------------------------------+
+--------------------------------------+
|  Inner_Iter|    Cur_Time|    rms[Rho]|
+--------------------------------------+
|         260|  0.0000e+00|   -3.325841|
|         270|  0.0000e+00|   -3.484764|
|         280|  0.0000e+00|   -3.523393|
|         290|  0.0000e+00|   -3.363636|
|         300|  0.0000e+00|   -3.364533|
+-----------------------------------------------------------------------+
|        File Writing Summary       |              Filename             |
+-----------------------------------------------------------------------+
|SU2 binary restart                 |restart_flow_databladeVALIDATION_Blade_14.dat|
|                                   |                       (15771 MB/s)|
|Paraview                           |volume_flow_databladeVALIDATION_Blade_14.vtu|
|                                   |                     (1323.35 MB/s)|
|Paraview surface                   |surface_flowdatabladeVALIDATION_Blade_14.vtu|
|                                   |                     (188.125 MB/s)|
|SU2 ASCII restart                  |restart_flow_databladeVALIDATION_Blade_14.csv|
|                                   |                     (21.9858 MB/s)|
|CSV file                           |surface_flowdatabladeVALIDATION_Blade_14.csv|
|                                   |                     (22.5434 MB/s)|
+-----------------------------------------------------------------------+
+--------------------------------------+
|  Inner_Iter|    Cur_Time|    rms[Rho]|
+--------------------------------------+
|         310|  0.0000e+00|   -3.527457|
|         320|  0.0000e+00|   -3.544942|
|         330|  0.0000e+00|   -3.387727|
|         340|  0.0000e+00|   -3.388067|
|         350|  0.0000e+00|   -3.495111|
+-----------------------------------------------------------------------+
|        File Writing Summary       |              Filename             |
+-----------------------------------------------------------------------+
|SU2 binary restart                 |restart_flow_databladeVALIDATION_Blade_14.dat|
|                                   |                     (15250.3 MB/s)|
|Paraview                           |volume_flow_databladeVALIDATION_Blade_14.vtu|
|                                   |                     (1314.77 MB/s)|
|Paraview surface                   |surface_flowdatabladeVALIDATION_Blade_14.vtu|
|                                   |                     (152.407 MB/s)|
|SU2 ASCII restart                  |restart_flow_databladeVALIDATION_Blade_14.csv|
|                                   |                     (21.7093 MB/s)|
|CSV file                           |surface_flowdatabladeVALIDATION_Blade_14.csv|
|                                   |                     (20.8288 MB/s)|
+-----------------------------------------------------------------------+
+--------------------------------------+
|  Inner_Iter|    Cur_Time|    rms[Rho]|
+--------------------------------------+
|         360|  0.0000e+00|   -3.431010|
|         370|  0.0000e+00|   -3.342551|
|         380|  0.0000e+00|   -3.506697|
|         390|  0.0000e+00|   -3.518407|
|         400|  0.0000e+00|   -3.357220|
+-----------------------------------------------------------------------+
|        File Writing Summary       |              Filename             |
+-----------------------------------------------------------------------+
|SU2 binary restart                 |restart_flow_databladeVALIDATION_Blade_14.dat|
|                                   |                     (15434.8 MB/s)|
|Paraview                           |volume_flow_databladeVALIDATION_Blade_14.vtu|
|                                   |                      (1340.8 MB/s)|
|Paraview surface                   |surface_flowdatabladeVALIDATION_Blade_14.vtu|
|                                   |                     (147.977 MB/s)|
|SU2 ASCII restart                  |restart_flow_databladeVALIDATION_Blade_14.csv|
|                                   |                     (22.0467 MB/s)|
|CSV file                           |surface_flowdatabladeVALIDATION_Blade_14.csv|
|                                   |                     (22.2909 MB/s)|
+-----------------------------------------------------------------------+
+--------------------------------------+
|  Inner_Iter|    Cur_Time|    rms[Rho]|
+--------------------------------------+
|         410|  0.0000e+00|   -3.462952|
|         420|  0.0000e+00|   -3.637567|
|         430|  0.0000e+00|   -3.587971|
|         440|  0.0000e+00|   -3.451053|
|         450|  0.0000e+00|   -3.650192|
+-----------------------------------------------------------------------+
|        File Writing Summary       |              Filename             |
+-----------------------------------------------------------------------+
|SU2 binary restart                 |restart_flow_databladeVALIDATION_Blade_14.dat|
|                                   |                     (15870.7 MB/s)|
|Paraview                           |volume_flow_databladeVALIDATION_Blade_14.vtu|
|                                   |                     (1364.25 MB/s)|
|Paraview surface                   |surface_flowdatabladeVALIDATION_Blade_14.vtu|
|                                   |                     (145.084 MB/s)|
|SU2 ASCII restart                  |restart_flow_databladeVALIDATION_Blade_14.csv|
|                                   |                     (22.0483 MB/s)|
|CSV file                           |surface_flowdatabladeVALIDATION_Blade_14.csv|
|                                   |                     (22.9347 MB/s)|
+-----------------------------------------------------------------------+
+--------------------------------------+
|  Inner_Iter|    Cur_Time|    rms[Rho]|
+--------------------------------------+
|         460|  0.0000e+00|   -3.512829|
|         470|  0.0000e+00|   -3.525547|
|         480|  0.0000e+00|   -3.718958|
|         490|  0.0000e+00|   -3.766834|
|         500|  0.0000e+00|   -3.562258|
+-----------------------------------------------------------------------+
|        File Writing Summary       |              Filename             |
+-----------------------------------------------------------------------+
|SU2 binary restart                 |restart_flow_databladeVALIDATION_Blade_14.dat|
|                                   |                     (16295.2 MB/s)|
|Paraview                           |volume_flow_databladeVALIDATION_Blade_14.vtu|
|                                   |                     (1349.87 MB/s)|
|Paraview surface                   |surface_flowdatabladeVALIDATION_Blade_14.vtu|
|                                   |                     (179.233 MB/s)|
|SU2 ASCII restart                  |restart_flow_databladeVALIDATION_Blade_14.csv|
|                                   |                     (21.9775 MB/s)|
|CSV file                           |surface_flowdatabladeVALIDATION_Blade_14.csv|
|                                   |                     (20.1498 MB/s)|
+-----------------------------------------------------------------------+
+--------------------------------------+
|  Inner_Iter|    Cur_Time|    rms[Rho]|
+--------------------------------------+
|         510|  0.0000e+00|   -3.703155|
|         520|  0.0000e+00|   -3.856646|
|         530|  0.0000e+00|   -3.715622|
|         540|  0.0000e+00|   -3.625238|
|         550|  0.0000e+00|   -3.851322|
+-----------------------------------------------------------------------+
|        File Writing Summary       |              Filename             |
+-----------------------------------------------------------------------+
|SU2 binary restart                 |restart_flow_databladeVALIDATION_Blade_14.dat|
|                                   |                     (15559.6 MB/s)|
|Paraview                           |volume_flow_databladeVALIDATION_Blade_14.vtu|
|                                   |                     (1346.77 MB/s)|
|Paraview surface                   |surface_flowdatabladeVALIDATION_Blade_14.vtu|
|                                   |                     (134.624 MB/s)|
|SU2 ASCII restart                  |restart_flow_databladeVALIDATION_Blade_14.csv|
|                                   |                     (21.9304 MB/s)|
|CSV file                           |surface_flowdatabladeVALIDATION_Blade_14.csv|
|                                   |                     (22.0384 MB/s)|
+-----------------------------------------------------------------------+
+--------------------------------------+
|  Inner_Iter|    Cur_Time|    rms[Rho]|
+--------------------------------------+
|         560|  0.0000e+00|   -3.870498|
|         570|  0.0000e+00|   -3.739920|
|         580|  0.0000e+00|   -3.845150|
|         590|  0.0000e+00|   -3.926981|
|         600|  0.0000e+00|   -3.869603|
+-----------------------------------------------------------------------+
|        File Writing Summary       |              Filename             |
+-----------------------------------------------------------------------+
|SU2 binary restart                 |restart_flow_databladeVALIDATION_Blade_14.dat|
|                                   |                     (16245.9 MB/s)|
|Paraview                           |volume_flow_databladeVALIDATION_Blade_14.vtu|
|                                   |                     (1420.79 MB/s)|
|Paraview surface                   |surface_flowdatabladeVALIDATION_Blade_14.vtu|
|                                   |                     (167.636 MB/s)|
|SU2 ASCII restart                  |restart_flow_databladeVALIDATION_Blade_14.csv|
|                                   |                     (22.5106 MB/s)|
|CSV file                           |surface_flowdatabladeVALIDATION_Blade_14.csv|
|                                   |                     (20.6596 MB/s)|
+-----------------------------------------------------------------------+
+--------------------------------------+
|  Inner_Iter|    Cur_Time|    rms[Rho]|
+--------------------------------------+
|         610|  0.0000e+00|   -3.692687|
|         620|  0.0000e+00|   -3.697992|
|         630|  0.0000e+00|   -3.778188|
|         640|  0.0000e+00|   -3.663419|
|         650|  0.0000e+00|   -3.692091|
+-----------------------------------------------------------------------+
|        File Writing Summary       |              Filename             |
+-----------------------------------------------------------------------+
|SU2 binary restart                 |restart_flow_databladeVALIDATION_Blade_14.dat|
|                                   |                     (16207.1 MB/s)|
|Paraview                           |volume_flow_databladeVALIDATION_Blade_14.vtu|
|                                   |                     (1275.42 MB/s)|
|Paraview surface                   |surface_flowdatabladeVALIDATION_Blade_14.vtu|
|                                   |                     (151.537 MB/s)|
|SU2 ASCII restart                  |restart_flow_databladeVALIDATION_Blade_14.csv|
|                                   |                     (22.1201 MB/s)|
|CSV file                           |surface_flowdatabladeVALIDATION_Blade_14.csv|
|                                   |                     (23.1351 MB/s)|
+-----------------------------------------------------------------------+
+--------------------------------------+
|  Inner_Iter|    Cur_Time|    rms[Rho]|
+--------------------------------------+
|         660|  0.0000e+00|   -3.839398|
|         670|  0.0000e+00|   -3.847572|
|         680|  0.0000e+00|   -3.715400|
|         690|  0.0000e+00|   -3.784528|
|         700|  0.0000e+00|   -3.935305|
+-----------------------------------------------------------------------+
|        File Writing Summary       |              Filename             |
+-----------------------------------------------------------------------+
|SU2 binary restart                 |restart_flow_databladeVALIDATION_Blade_14.dat|
|                                   |                     (16184.4 MB/s)|
|Paraview                           |volume_flow_databladeVALIDATION_Blade_14.vtu|
|                                   |                     (1339.12 MB/s)|
|Paraview surface                   |surface_flowdatabladeVALIDATION_Blade_14.vtu|
|                                   |                     (23.7318 MB/s)|
|SU2 ASCII restart                  |restart_flow_databladeVALIDATION_Blade_14.csv|
|                                   |                     (21.2775 MB/s)|
|CSV file                           |surface_flowdatabladeVALIDATION_Blade_14.csv|
|                                   |                     (21.5518 MB/s)|
+-----------------------------------------------------------------------+
+--------------------------------------+
|  Inner_Iter|    Cur_Time|    rms[Rho]|
+--------------------------------------+
|         710|  0.0000e+00|   -3.786940|
|         720|  0.0000e+00|   -3.750586|
|         730|  0.0000e+00|   -3.874968|
|         740|  0.0000e+00|   -3.895588|
|         750|  0.0000e+00|   -3.741969|
+-----------------------------------------------------------------------+
|        File Writing Summary       |              Filename             |
+-----------------------------------------------------------------------+
|SU2 binary restart                 |restart_flow_databladeVALIDATION_Blade_14.dat|
|                                   |                     (16251.6 MB/s)|
|Paraview                           |volume_flow_databladeVALIDATION_Blade_14.vtu|
|                                   |                     (1444.76 MB/s)|
|Paraview surface                   |surface_flowdatabladeVALIDATION_Blade_14.vtu|
|                                   |                     (137.341 MB/s)|
|SU2 ASCII restart                  |restart_flow_databladeVALIDATION_Blade_14.csv|
|                                   |                     (21.9812 MB/s)|
|CSV file                           |surface_flowdatabladeVALIDATION_Blade_14.csv|
|                                   |                     (22.3356 MB/s)|
+-----------------------------------------------------------------------+
+--------------------------------------+
|  Inner_Iter|    Cur_Time|    rms[Rho]|
+--------------------------------------+
|         760|  0.0000e+00|   -3.918101|
|         770|  0.0000e+00|   -3.934920|
|         780|  0.0000e+00|   -3.768796|
|         790|  0.0000e+00|   -3.801441|
|         800|  0.0000e+00|   -3.963435|
+-----------------------------------------------------------------------+
|        File Writing Summary       |              Filename             |
+-----------------------------------------------------------------------+
|SU2 binary restart                 |restart_flow_databladeVALIDATION_Blade_14.dat|
|                                   |                     (16347.1 MB/s)|
|Paraview                           |volume_flow_databladeVALIDATION_Blade_14.vtu|
|                                   |                     (1284.74 MB/s)|
|Paraview surface                   |surface_flowdatabladeVALIDATION_Blade_14.vtu|
|                                   |                     (143.916 MB/s)|
|SU2 ASCII restart                  |restart_flow_databladeVALIDATION_Blade_14.csv|
|                                   |                     (22.2034 MB/s)|
|CSV file                           |surface_flowdatabladeVALIDATION_Blade_14.csv|
|                                   |                     (23.1977 MB/s)|
+-----------------------------------------------------------------------+
+--------------------------------------+
|  Inner_Iter|    Cur_Time|    rms[Rho]|
+--------------------------------------+
|         810|  0.0000e+00|   -3.903055|
|         820|  0.0000e+00|   -3.797377|
|         830|  0.0000e+00|   -3.930188|
|         840|  0.0000e+00|   -4.004311|
|         850|  0.0000e+00|   -3.902172|
+-----------------------------------------------------------------------+
|        File Writing Summary       |              Filename             |
+-----------------------------------------------------------------------+
|SU2 binary restart                 |restart_flow_databladeVALIDATION_Blade_14.dat|
|                                   |                     (16321.7 MB/s)|
|Paraview                           |volume_flow_databladeVALIDATION_Blade_14.vtu|
|                                   |                     (1437.53 MB/s)|
|Paraview surface                   |surface_flowdatabladeVALIDATION_Blade_14.vtu|
|                                   |                     (132.064 MB/s)|
|SU2 ASCII restart                  |restart_flow_databladeVALIDATION_Blade_14.csv|
|                                   |                     (22.3651 MB/s)|
|CSV file                           |surface_flowdatabladeVALIDATION_Blade_14.csv|
|                                   |                     (22.1352 MB/s)|
+-----------------------------------------------------------------------+
+--------------------------------------+
|  Inner_Iter|    Cur_Time|    rms[Rho]|
+--------------------------------------+
|         860|  0.0000e+00|   -3.868311|
|         870|  0.0000e+00|   -4.066498|
|         880|  0.0000e+00|   -4.052537|
|         890|  0.0000e+00|   -4.034665|
|         900|  0.0000e+00|   -4.165210|
+-----------------------------------------------------------------------+
|        File Writing Summary       |              Filename             |
+-----------------------------------------------------------------------+
|SU2 binary restart                 |restart_flow_databladeVALIDATION_Blade_14.dat|
|                                   |                     (16610.4 MB/s)|
|Paraview                           |volume_flow_databladeVALIDATION_Blade_14.vtu|
|                                   |                     (1340.14 MB/s)|
|Paraview surface                   |surface_flowdatabladeVALIDATION_Blade_14.vtu|
|                                   |                     (149.147 MB/s)|
|SU2 ASCII restart                  |restart_flow_databladeVALIDATION_Blade_14.csv|
|                                   |                     (21.9888 MB/s)|
|CSV file                           |surface_flowdatabladeVALIDATION_Blade_14.csv|
|                                   |                     (22.1851 MB/s)|
+-----------------------------------------------------------------------+
+--------------------------------------+
|  Inner_Iter|    Cur_Time|    rms[Rho]|
+--------------------------------------+
|         910|  0.0000e+00|   -4.235777|
|         920|  0.0000e+00|   -4.177470|
|         930|  0.0000e+00|   -4.226555|
|         940|  0.0000e+00|   -4.341268|
|         950|  0.0000e+00|   -4.259688|
+-----------------------------------------------------------------------+
|        File Writing Summary       |              Filename             |
+-----------------------------------------------------------------------+
|SU2 binary restart                 |restart_flow_databladeVALIDATION_Blade_14.dat|
|                                   |                     (1458.57 MB/s)|
|Paraview                           |volume_flow_databladeVALIDATION_Blade_14.vtu|
|                                   |                     (1217.53 MB/s)|
|Paraview surface                   |surface_flowdatabladeVALIDATION_Blade_14.vtu|
|                                   |                     (147.181 MB/s)|
|SU2 ASCII restart                  |restart_flow_databladeVALIDATION_Blade_14.csv|
|                                   |                     (21.8591 MB/s)|
|CSV file                           |surface_flowdatabladeVALIDATION_Blade_14.csv|
|                                   |                     (21.3393 MB/s)|
+-----------------------------------------------------------------------+
+--------------------------------------+
|  Inner_Iter|    Cur_Time|    rms[Rho]|
+--------------------------------------+
|         960|  0.0000e+00|   -4.133458|
|         970|  0.0000e+00|   -4.228345|
|         980|  0.0000e+00|   -4.325278|
|         990|  0.0000e+00|   -4.275860|
|        1000|  0.0000e+00|   -4.229113|
+-----------------------------------------------------------------------+
|        File Writing Summary       |              Filename             |
+-----------------------------------------------------------------------+
|SU2 binary restart                 |restart_flow_databladeVALIDATION_Blade_14.dat|
|                                   |                     (16487.1 MB/s)|
|Paraview                           |volume_flow_databladeVALIDATION_Blade_14.vtu|
|                                   |                     (1464.99 MB/s)|
|Paraview surface                   |surface_flowdatabladeVALIDATION_Blade_14.vtu|
|                                   |                     (146.184 MB/s)|
|SU2 ASCII restart                  |restart_flow_databladeVALIDATION_Blade_14.csv|
|                                   |                     (21.7516 MB/s)|
|CSV file                           |surface_flowdatabladeVALIDATION_Blade_14.csv|
|                                   |                     (21.8596 MB/s)|
+-----------------------------------------------------------------------+
+--------------------------------------+
|  Inner_Iter|    Cur_Time|    rms[Rho]|
+--------------------------------------+
|        1010|  0.0000e+00|   -4.367137|
|        1020|  0.0000e+00|   -4.368032|
|        1030|  0.0000e+00|   -4.216890|
|        1040|  0.0000e+00|   -4.407621|
|        1050|  0.0000e+00|   -4.451432|
+-----------------------------------------------------------------------+
|        File Writing Summary       |              Filename             |
+-----------------------------------------------------------------------+
|SU2 binary restart                 |restart_flow_databladeVALIDATION_Blade_14.dat|
|                                   |                     (17341.4 MB/s)|
|Paraview                           |volume_flow_databladeVALIDATION_Blade_14.vtu|
|                                   |                     (1279.13 MB/s)|
|Paraview surface                   |surface_flowdatabladeVALIDATION_Blade_14.vtu|
|                                   |                     (138.749 MB/s)|
|SU2 ASCII restart                  |restart_flow_databladeVALIDATION_Blade_14.csv|
|                                   |                     (22.1507 MB/s)|
|CSV file                           |surface_flowdatabladeVALIDATION_Blade_14.csv|
|                                   |                     (21.3264 MB/s)|
+-----------------------------------------------------------------------+
+--------------------------------------+
|  Inner_Iter|    Cur_Time|    rms[Rho]|
+--------------------------------------+
|        1060|  0.0000e+00|   -4.302391|
|        1070|  0.0000e+00|   -4.345882|
|        1080|  0.0000e+00|   -4.398203|
|        1090|  0.0000e+00|   -4.609329|
|        1100|  0.0000e+00|   -4.621759|
+-----------------------------------------------------------------------+
|        File Writing Summary       |              Filename             |
+-----------------------------------------------------------------------+
|SU2 binary restart                 |restart_flow_databladeVALIDATION_Blade_14.dat|
|                                   |                        (8934 MB/s)|
|Paraview                           |volume_flow_databladeVALIDATION_Blade_14.vtu|
|                                   |                     (1292.44 MB/s)|
|Paraview surface                   |surface_flowdatabladeVALIDATION_Blade_14.vtu|
|                                   |                     (129.487 MB/s)|
|SU2 ASCII restart                  |restart_flow_databladeVALIDATION_Blade_14.csv|
|                                   |                     (21.8699 MB/s)|
|CSV file                           |surface_flowdatabladeVALIDATION_Blade_14.csv|
|                                   |                     (22.8461 MB/s)|
+-----------------------------------------------------------------------+
+--------------------------------------+
|  Inner_Iter|    Cur_Time|    rms[Rho]|
+--------------------------------------+
|        1110|  0.0000e+00|   -4.584137|
|        1120|  0.0000e+00|   -4.584847|
|        1130|  0.0000e+00|   -4.688767|
|        1140|  0.0000e+00|   -4.635008|
|        1150|  0.0000e+00|   -4.618989|
+-----------------------------------------------------------------------+
|        File Writing Summary       |              Filename             |
+-----------------------------------------------------------------------+
|SU2 binary restart                 |restart_flow_databladeVALIDATION_Blade_14.dat|
|                                   |                     (15692.8 MB/s)|
|Paraview                           |volume_flow_databladeVALIDATION_Blade_14.vtu|
|                                   |                     (1210.98 MB/s)|
|Paraview surface                   |surface_flowdatabladeVALIDATION_Blade_14.vtu|
|                                   |                     (138.293 MB/s)|
|SU2 ASCII restart                  |restart_flow_databladeVALIDATION_Blade_14.csv|
|                                   |                     (21.7624 MB/s)|
|CSV file                           |surface_flowdatabladeVALIDATION_Blade_14.csv|
|                                   |                     (22.5715 MB/s)|
+-----------------------------------------------------------------------+
+--------------------------------------+
|  Inner_Iter|    Cur_Time|    rms[Rho]|
+--------------------------------------+
|        1160|  0.0000e+00|   -4.733544|
|        1170|  0.0000e+00|   -4.820093|
|        1180|  0.0000e+00|   -4.767307|
|        1190|  0.0000e+00|   -4.660549|
|        1200|  0.0000e+00|   -4.760698|
+-----------------------------------------------------------------------+
|        File Writing Summary       |              Filename             |
+-----------------------------------------------------------------------+
|SU2 binary restart                 |restart_flow_databladeVALIDATION_Blade_14.dat|
|                                   |                     (16423.8 MB/s)|
|Paraview                           |volume_flow_databladeVALIDATION_Blade_14.vtu|
|                                   |                      (1308.5 MB/s)|
|Paraview surface                   |surface_flowdatabladeVALIDATION_Blade_14.vtu|
|                                   |                      (147.25 MB/s)|
|SU2 ASCII restart                  |restart_flow_databladeVALIDATION_Blade_14.csv|
|                                   |                       (21.67 MB/s)|
|CSV file                           |surface_flowdatabladeVALIDATION_Blade_14.csv|
|                                   |                     (21.1144 MB/s)|
+-----------------------------------------------------------------------+
+--------------------------------------+
|  Inner_Iter|    Cur_Time|    rms[Rho]|
+--------------------------------------+
|        1210|  0.0000e+00|   -4.754276|
|        1220|  0.0000e+00|   -4.695641|
|        1230|  0.0000e+00|   -4.763640|
|        1240|  0.0000e+00|   -4.881535|
|        1250|  0.0000e+00|   -4.847826|
+-----------------------------------------------------------------------+
|        File Writing Summary       |              Filename             |
+-----------------------------------------------------------------------+
|SU2 binary restart                 |restart_flow_databladeVALIDATION_Blade_14.dat|
|                                   |                     (13034.7 MB/s)|
|Paraview                           |volume_flow_databladeVALIDATION_Blade_14.vtu|
|                                   |                     (1344.69 MB/s)|
|Paraview surface                   |surface_flowdatabladeVALIDATION_Blade_14.vtu|
|                                   |                     (140.448 MB/s)|
|SU2 ASCII restart                  |restart_flow_databladeVALIDATION_Blade_14.csv|
|                                   |                     (22.1932 MB/s)|
|CSV file                           |surface_flowdatabladeVALIDATION_Blade_14.csv|
|                                   |                      (22.387 MB/s)|
+-----------------------------------------------------------------------+
+--------------------------------------+
|  Inner_Iter|    Cur_Time|    rms[Rho]|
+--------------------------------------+
|        1260|  0.0000e+00|   -4.791460|
|        1270|  0.0000e+00|   -4.885774|
|        1280|  0.0000e+00|   -4.903692|
|        1290|  0.0000e+00|   -4.827423|
|        1300|  0.0000e+00|   -4.849503|
+-----------------------------------------------------------------------+
|        File Writing Summary       |              Filename             |
+-----------------------------------------------------------------------+
|SU2 binary restart                 |restart_flow_databladeVALIDATION_Blade_14.dat|
|                                   |                     (16009.4 MB/s)|
|Paraview                           |volume_flow_databladeVALIDATION_Blade_14.vtu|
|                                   |                     (1280.69 MB/s)|
|Paraview surface                   |surface_flowdatabladeVALIDATION_Blade_14.vtu|
|                                   |                     (143.778 MB/s)|
|SU2 ASCII restart                  |restart_flow_databladeVALIDATION_Blade_14.csv|
|                                   |                      (21.939 MB/s)|
|CSV file                           |surface_flowdatabladeVALIDATION_Blade_14.csv|
|                                   |                     (22.0682 MB/s)|
+-----------------------------------------------------------------------+
+--------------------------------------+
|  Inner_Iter|    Cur_Time|    rms[Rho]|
+--------------------------------------+
|        1310|  0.0000e+00|   -4.970419|
|        1320|  0.0000e+00|   -4.960481|
|        1330|  0.0000e+00|   -4.869596|
|        1340|  0.0000e+00|   -4.910061|
|        1350|  0.0000e+00|   -4.988927|
+-----------------------------------------------------------------------+
|        File Writing Summary       |              Filename             |
+-----------------------------------------------------------------------+
|SU2 binary restart                 |restart_flow_databladeVALIDATION_Blade_14.dat|
|                                   |                     (12476.2 MB/s)|
|Paraview                           |volume_flow_databladeVALIDATION_Blade_14.vtu|
|                                   |                     (1369.66 MB/s)|
|Paraview surface                   |surface_flowdatabladeVALIDATION_Blade_14.vtu|
|                                   |                     (144.956 MB/s)|
|SU2 ASCII restart                  |restart_flow_databladeVALIDATION_Blade_14.csv|
|                                   |                     (21.6126 MB/s)|
|CSV file                           |surface_flowdatabladeVALIDATION_Blade_14.csv|
|                                   |                     (23.0487 MB/s)|
+-----------------------------------------------------------------------+
+--------------------------------------+
|  Inner_Iter|    Cur_Time|    rms[Rho]|
+--------------------------------------+
|        1360|  0.0000e+00|   -4.935587|
|        1370|  0.0000e+00|   -4.847142|
|        1380|  0.0000e+00|   -4.935480|
|        1390|  0.0000e+00|   -4.975974|
|        1400|  0.0000e+00|   -4.923354|
+-----------------------------------------------------------------------+
|        File Writing Summary       |              Filename             |
+-----------------------------------------------------------------------+
|SU2 binary restart                 |restart_flow_databladeVALIDATION_Blade_14.dat|
|                                   |                       (15874 MB/s)|
|Paraview                           |volume_flow_databladeVALIDATION_Blade_14.vtu|
|                                   |                     (1325.97 MB/s)|
|Paraview surface                   |surface_flowdatabladeVALIDATION_Blade_14.vtu|
|                                   |                     (146.295 MB/s)|
|SU2 ASCII restart                  |restart_flow_databladeVALIDATION_Blade_14.csv|
|                                   |                     (22.0083 MB/s)|
|CSV file                           |surface_flowdatabladeVALIDATION_Blade_14.csv|
|                                   |                     (22.8925 MB/s)|
+-----------------------------------------------------------------------+
+--------------------------------------+
|  Inner_Iter|    Cur_Time|    rms[Rho]|
+--------------------------------------+
|        1410|  0.0000e+00|   -4.925299|
|        1420|  0.0000e+00|   -5.028300|
|        1430|  0.0000e+00|   -4.996020|
|        1440|  0.0000e+00|   -4.977247|
|        1450|  0.0000e+00|   -5.069681|
+-----------------------------------------------------------------------+
|        File Writing Summary       |              Filename             |
+-----------------------------------------------------------------------+
|SU2 binary restart                 |restart_flow_databladeVALIDATION_Blade_14.dat|
|                                   |                     (15701.3 MB/s)|
|Paraview                           |volume_flow_databladeVALIDATION_Blade_14.vtu|
|                                   |                     (1391.19 MB/s)|
|Paraview surface                   |surface_flowdatabladeVALIDATION_Blade_14.vtu|
|                                   |                     (137.259 MB/s)|
|SU2 ASCII restart                  |restart_flow_databladeVALIDATION_Blade_14.csv|
|                                   |                     (21.9669 MB/s)|
|CSV file                           |surface_flowdatabladeVALIDATION_Blade_14.csv|
|                                   |                     (20.9334 MB/s)|
+-----------------------------------------------------------------------+
+--------------------------------------+
|  Inner_Iter|    Cur_Time|    rms[Rho]|
+--------------------------------------+
|        1460|  0.0000e+00|   -5.111608|
|        1470|  0.0000e+00|   -5.064219|
|        1480|  0.0000e+00|   -5.020286|
|        1490|  0.0000e+00|   -5.118631|
|        1500|  0.0000e+00|   -5.098002|
+-----------------------------------------------------------------------+
|        File Writing Summary       |              Filename             |
+-----------------------------------------------------------------------+
|SU2 binary restart                 |restart_flow_databladeVALIDATION_Blade_14.dat|
|                                   |                     (16560.4 MB/s)|
|Paraview                           |volume_flow_databladeVALIDATION_Blade_14.vtu|
|                                   |                      (1300.8 MB/s)|
|Paraview surface                   |surface_flowdatabladeVALIDATION_Blade_14.vtu|
|                                   |                     (144.658 MB/s)|
|SU2 ASCII restart                  |restart_flow_databladeVALIDATION_Blade_14.csv|
|                                   |                     (21.7929 MB/s)|
|CSV file                           |surface_flowdatabladeVALIDATION_Blade_14.csv|
|                                   |                     (22.3244 MB/s)|
+-----------------------------------------------------------------------+
+--------------------------------------+
|  Inner_Iter|    Cur_Time|    rms[Rho]|
+--------------------------------------+
|        1510|  0.0000e+00|   -5.034745|
|        1520|  0.0000e+00|   -5.079104|
|        1530|  0.0000e+00|   -5.147748|
|        1540|  0.0000e+00|   -5.061650|
|        1550|  0.0000e+00|   -5.107507|
+-----------------------------------------------------------------------+
|        File Writing Summary       |              Filename             |
+-----------------------------------------------------------------------+
|SU2 binary restart                 |restart_flow_databladeVALIDATION_Blade_14.dat|
|                                   |                     (16203.7 MB/s)|
|Paraview                           |volume_flow_databladeVALIDATION_Blade_14.vtu|
|                                   |                     (1400.51 MB/s)|
|Paraview surface                   |surface_flowdatabladeVALIDATION_Blade_14.vtu|
|                                   |                       (141.7 MB/s)|
|SU2 ASCII restart                  |restart_flow_databladeVALIDATION_Blade_14.csv|
|                                   |                      (21.523 MB/s)|
|CSV file                           |surface_flowdatabladeVALIDATION_Blade_14.csv|
|                                   |                     (22.1754 MB/s)|
+-----------------------------------------------------------------------+
+--------------------------------------+
|  Inner_Iter|    Cur_Time|    rms[Rho]|
+--------------------------------------+
|        1560|  0.0000e+00|   -5.140336|
|        1570|  0.0000e+00|   -5.142059|
|        1580|  0.0000e+00|   -5.238905|
|        1590|  0.0000e+00|   -5.227001|
|        1600|  0.0000e+00|   -5.175516|
+-----------------------------------------------------------------------+
|        File Writing Summary       |              Filename             |
+-----------------------------------------------------------------------+
|SU2 binary restart                 |restart_flow_databladeVALIDATION_Blade_14.dat|
|                                   |                     (16322.8 MB/s)|
|Paraview                           |volume_flow_databladeVALIDATION_Blade_14.vtu|
|                                   |                     (1390.89 MB/s)|
|Paraview surface                   |surface_flowdatabladeVALIDATION_Blade_14.vtu|
|                                   |                     (149.173 MB/s)|
|SU2 ASCII restart                  |restart_flow_databladeVALIDATION_Blade_14.csv|
|                                   |                     (21.8042 MB/s)|
|CSV file                           |surface_flowdatabladeVALIDATION_Blade_14.csv|
|                                   |                     (23.1182 MB/s)|
+-----------------------------------------------------------------------+
+--------------------------------------+
|  Inner_Iter|    Cur_Time|    rms[Rho]|
+--------------------------------------+
|        1610|  0.0000e+00|   -5.263428|
|        1620|  0.0000e+00|   -5.320403|
|        1630|  0.0000e+00|   -5.267964|
|        1640|  0.0000e+00|   -5.216974|
|        1650|  0.0000e+00|   -5.309540|
+-----------------------------------------------------------------------+
|        File Writing Summary       |              Filename             |
+-----------------------------------------------------------------------+
|SU2 binary restart                 |restart_flow_databladeVALIDATION_Blade_14.dat|
|                                   |                     (15884.9 MB/s)|
|Paraview                           |volume_flow_databladeVALIDATION_Blade_14.vtu|
|                                   |                     (1388.64 MB/s)|
|Paraview surface                   |surface_flowdatabladeVALIDATION_Blade_14.vtu|
|                                   |                     (136.677 MB/s)|
|SU2 ASCII restart                  |restart_flow_databladeVALIDATION_Blade_14.csv|
|                                   |                     (21.9519 MB/s)|
|CSV file                           |surface_flowdatabladeVALIDATION_Blade_14.csv|
|                                   |                     (22.8971 MB/s)|
+-----------------------------------------------------------------------+
+--------------------------------------+
|  Inner_Iter|    Cur_Time|    rms[Rho]|
+--------------------------------------+
|        1660|  0.0000e+00|   -5.303051|
|        1670|  0.0000e+00|   -5.259244|
|        1680|  0.0000e+00|   -5.345096|
|        1690|  0.0000e+00|   -5.397739|
|        1700|  0.0000e+00|   -5.322848|
+-----------------------------------------------------------------------+
|        File Writing Summary       |              Filename             |
+-----------------------------------------------------------------------+
|SU2 binary restart                 |restart_flow_databladeVALIDATION_Blade_14.dat|
|                                   |                       (16339 MB/s)|
|Paraview                           |volume_flow_databladeVALIDATION_Blade_14.vtu|
|                                   |                     (1400.96 MB/s)|
|Paraview surface                   |surface_flowdatabladeVALIDATION_Blade_14.vtu|
|                                   |                     (146.488 MB/s)|
|SU2 ASCII restart                  |restart_flow_databladeVALIDATION_Blade_14.csv|
|                                   |                     (21.8581 MB/s)|
|CSV file                           |surface_flowdatabladeVALIDATION_Blade_14.csv|
|                                   |                     (21.4226 MB/s)|
+-----------------------------------------------------------------------+
+--------------------------------------+
|  Inner_Iter|    Cur_Time|    rms[Rho]|
+--------------------------------------+
|        1710|  0.0000e+00|   -5.214185|
|        1720|  0.0000e+00|   -5.317683|
|        1730|  0.0000e+00|   -5.333720|
|        1740|  0.0000e+00|   -5.322950|
|        1750|  0.0000e+00|   -5.391572|
+-----------------------------------------------------------------------+
|        File Writing Summary       |              Filename             |
+-----------------------------------------------------------------------+
|SU2 binary restart                 |restart_flow_databladeVALIDATION_Blade_14.dat|
|                                   |                     (16350.5 MB/s)|
|Paraview                           |volume_flow_databladeVALIDATION_Blade_14.vtu|
|                                   |                     (1428.41 MB/s)|
|Paraview surface                   |surface_flowdatabladeVALIDATION_Blade_14.vtu|
|                                   |                     (140.015 MB/s)|
|SU2 ASCII restart                  |restart_flow_databladeVALIDATION_Blade_14.csv|
|                                   |                     (21.9005 MB/s)|
|CSV file                           |surface_flowdatabladeVALIDATION_Blade_14.csv|
|                                   |                     (21.6219 MB/s)|
+-----------------------------------------------------------------------+
+--------------------------------------+
|  Inner_Iter|    Cur_Time|    rms[Rho]|
+--------------------------------------+
|        1760|  0.0000e+00|   -5.462529|
|        1770|  0.0000e+00|   -5.393778|
|        1780|  0.0000e+00|   -5.296071|
|        1790|  0.0000e+00|   -5.365070|
|        1800|  0.0000e+00|   -5.414035|
+-----------------------------------------------------------------------+
|        File Writing Summary       |              Filename             |
+-----------------------------------------------------------------------+
|SU2 binary restart                 |restart_flow_databladeVALIDATION_Blade_14.dat|
|                                   |                     (16542.6 MB/s)|
|Paraview                           |volume_flow_databladeVALIDATION_Blade_14.vtu|
|                                   |                     (1340.99 MB/s)|
|Paraview surface                   |surface_flowdatabladeVALIDATION_Blade_14.vtu|
|                                   |                     (142.661 MB/s)|
|SU2 ASCII restart                  |restart_flow_databladeVALIDATION_Blade_14.csv|
|                                   |                     (21.8986 MB/s)|
|CSV file                           |surface_flowdatabladeVALIDATION_Blade_14.csv|
|                                   |                     (21.7548 MB/s)|
+-----------------------------------------------------------------------+
+--------------------------------------+
|  Inner_Iter|    Cur_Time|    rms[Rho]|
+--------------------------------------+
|        1810|  0.0000e+00|   -5.410621|
|        1820|  0.0000e+00|   -5.436139|
|        1830|  0.0000e+00|   -5.462746|
|        1840|  0.0000e+00|   -5.374943|
|        1850|  0.0000e+00|   -5.349376|
+-----------------------------------------------------------------------+
|        File Writing Summary       |              Filename             |
+-----------------------------------------------------------------------+
|SU2 binary restart                 |restart_flow_databladeVALIDATION_Blade_14.dat|
|                                   |                       (18555 MB/s)|
|Paraview                           |volume_flow_databladeVALIDATION_Blade_14.vtu|
|                                   |                     (1290.91 MB/s)|
|Paraview surface                   |surface_flowdatabladeVALIDATION_Blade_14.vtu|
|                                   |                     (141.951 MB/s)|
|SU2 ASCII restart                  |restart_flow_databladeVALIDATION_Blade_14.csv|
|                                   |                     (22.2156 MB/s)|
|CSV file                           |surface_flowdatabladeVALIDATION_Blade_14.csv|
|                                   |                     (21.7883 MB/s)|
+-----------------------------------------------------------------------+
+--------------------------------------+
|  Inner_Iter|    Cur_Time|    rms[Rho]|
+--------------------------------------+
|        1860|  0.0000e+00|   -5.447992|
|        1870|  0.0000e+00|   -5.451967|
|        1880|  0.0000e+00|   -5.458892|
|        1890|  0.0000e+00|   -5.502537|
|        1900|  0.0000e+00|   -5.526333|
+-----------------------------------------------------------------------+
|        File Writing Summary       |              Filename             |
+-----------------------------------------------------------------------+
|SU2 binary restart                 |restart_flow_databladeVALIDATION_Blade_14.dat|
|                                   |                     (15773.2 MB/s)|
|Paraview                           |volume_flow_databladeVALIDATION_Blade_14.vtu|
|                                   |                     (1540.69 MB/s)|
|Paraview surface                   |surface_flowdatabladeVALIDATION_Blade_14.vtu|
|                                   |                     (156.343 MB/s)|
|SU2 ASCII restart                  |restart_flow_databladeVALIDATION_Blade_14.csv|
|                                   |                     (21.3943 MB/s)|
|CSV file                           |surface_flowdatabladeVALIDATION_Blade_14.csv|
|                                   |                     (20.5592 MB/s)|
+-----------------------------------------------------------------------+
+--------------------------------------+
|  Inner_Iter|    Cur_Time|    rms[Rho]|
+--------------------------------------+
|        1910|  0.0000e+00|   -5.496664|
|        1920|  0.0000e+00|   -5.481349|
|        1930|  0.0000e+00|   -5.534347|
|        1940|  0.0000e+00|   -5.506313|
|        1950|  0.0000e+00|   -5.465501|
+-----------------------------------------------------------------------+
|        File Writing Summary       |              Filename             |
+-----------------------------------------------------------------------+
|SU2 binary restart                 |restart_flow_databladeVALIDATION_Blade_14.dat|
|                                   |                     (16168.5 MB/s)|
|Paraview                           |volume_flow_databladeVALIDATION_Blade_14.vtu|
|                                   |                     (1372.09 MB/s)|
|Paraview surface                   |surface_flowdatabladeVALIDATION_Blade_14.vtu|
|                                   |                     (146.793 MB/s)|
|SU2 ASCII restart                  |restart_flow_databladeVALIDATION_Blade_14.csv|
|                                   |                     (21.6516 MB/s)|
|CSV file                           |surface_flowdatabladeVALIDATION_Blade_14.csv|
|                                   |                     (20.4253 MB/s)|
+-----------------------------------------------------------------------+
+--------------------------------------+
|  Inner_Iter|    Cur_Time|    rms[Rho]|
+--------------------------------------+
|        1960|  0.0000e+00|   -5.514109|
|        1970|  0.0000e+00|   -5.550342|
|        1980|  0.0000e+00|   -5.463740|
|        1990|  0.0000e+00|   -5.476501|
|        2000|  0.0000e+00|   -5.531416|
+-----------------------------------------------------------------------+
|        File Writing Summary       |              Filename             |
+-----------------------------------------------------------------------+
|SU2 binary restart                 |restart_flow_databladeVALIDATION_Blade_14.dat|
|                                   |                     (14605.1 MB/s)|
|Paraview                           |volume_flow_databladeVALIDATION_Blade_14.vtu|
|                                   |                     (1288.15 MB/s)|
|Paraview surface                   |surface_flowdatabladeVALIDATION_Blade_14.vtu|
|                                   |                     (144.525 MB/s)|
|SU2 ASCII restart                  |restart_flow_databladeVALIDATION_Blade_14.csv|
|                                   |                     (21.8541 MB/s)|
|CSV file                           |surface_flowdatabladeVALIDATION_Blade_14.csv|
|                                   |                     (20.6064 MB/s)|
+-----------------------------------------------------------------------+
+--------------------------------------+
|  Inner_Iter|    Cur_Time|    rms[Rho]|
+--------------------------------------+
|        2010|  0.0000e+00|   -5.583544|
|        2020|  0.0000e+00|   -5.581722|
|        2030|  0.0000e+00|   -5.585500|
|        2040|  0.0000e+00|   -5.639228|
|        2050|  0.0000e+00|   -5.665964|
+-----------------------------------------------------------------------+
|        File Writing Summary       |              Filename             |
+-----------------------------------------------------------------------+
|SU2 binary restart                 |restart_flow_databladeVALIDATION_Blade_14.dat|
|                                   |                       (12773 MB/s)|
|Paraview                           |volume_flow_databladeVALIDATION_Blade_14.vtu|
|                                   |                     (1394.51 MB/s)|
|Paraview surface                   |surface_flowdatabladeVALIDATION_Blade_14.vtu|
|                                   |                     (143.754 MB/s)|
|SU2 ASCII restart                  |restart_flow_databladeVALIDATION_Blade_14.csv|
|                                   |                     (22.0146 MB/s)|
|CSV file                           |surface_flowdatabladeVALIDATION_Blade_14.csv|
|                                   |                     (21.3733 MB/s)|
+-----------------------------------------------------------------------+
+--------------------------------------+
|  Inner_Iter|    Cur_Time|    rms[Rho]|
+--------------------------------------+
|        2060|  0.0000e+00|   -5.591793|
|        2070|  0.0000e+00|   -5.592137|
|        2080|  0.0000e+00|   -5.600144|
|        2090|  0.0000e+00|   -5.574144|
|        2100|  0.0000e+00|   -5.639232|
+-----------------------------------------------------------------------+
|        File Writing Summary       |              Filename             |
+-----------------------------------------------------------------------+
|SU2 binary restart                 |restart_flow_databladeVALIDATION_Blade_14.dat|
|                                   |                       (16680 MB/s)|
|Paraview                           |volume_flow_databladeVALIDATION_Blade_14.vtu|
|                                   |                     (1324.34 MB/s)|
|Paraview surface                   |surface_flowdatabladeVALIDATION_Blade_14.vtu|
|                                   |                     (185.845 MB/s)|
|SU2 ASCII restart                  |restart_flow_databladeVALIDATION_Blade_14.csv|
|                                   |                     (21.4734 MB/s)|
|CSV file                           |surface_flowdatabladeVALIDATION_Blade_14.csv|
|                                   |                     (22.0163 MB/s)|
+-----------------------------------------------------------------------+
+--------------------------------------+
|  Inner_Iter|    Cur_Time|    rms[Rho]|
+--------------------------------------+
|        2110|  0.0000e+00|   -5.633686|
|        2120|  0.0000e+00|   -5.596791|
|        2130|  0.0000e+00|   -5.653271|
|        2140|  0.0000e+00|   -5.707257|
|        2150|  0.0000e+00|   -5.677926|
+-----------------------------------------------------------------------+
|        File Writing Summary       |              Filename             |
+-----------------------------------------------------------------------+
|SU2 binary restart                 |restart_flow_databladeVALIDATION_Blade_14.dat|
|                                   |                     (15927.7 MB/s)|
|Paraview                           |volume_flow_databladeVALIDATION_Blade_14.vtu|
|                                   |                     (1423.86 MB/s)|
|Paraview surface                   |surface_flowdatabladeVALIDATION_Blade_14.vtu|
|                                   |                     (148.684 MB/s)|
|SU2 ASCII restart                  |restart_flow_databladeVALIDATION_Blade_14.csv|
|                                   |                     (21.8674 MB/s)|
|CSV file                           |surface_flowdatabladeVALIDATION_Blade_14.csv|
|                                   |                     (16.1856 MB/s)|
+-----------------------------------------------------------------------+
+--------------------------------------+
|  Inner_Iter|    Cur_Time|    rms[Rho]|
+--------------------------------------+
|        2160|  0.0000e+00|   -5.663880|
|        2170|  0.0000e+00|   -5.711724|
|        2180|  0.0000e+00|   -5.715871|
|        2190|  0.0000e+00|   -5.673243|
|        2200|  0.0000e+00|   -5.714085|
+-----------------------------------------------------------------------+
|        File Writing Summary       |              Filename             |
+-----------------------------------------------------------------------+
|SU2 binary restart                 |restart_flow_databladeVALIDATION_Blade_14.dat|
|                                   |                       (16404 MB/s)|
|Paraview                           |volume_flow_databladeVALIDATION_Blade_14.vtu|
|                                   |                     (1247.64 MB/s)|
|Paraview surface                   |surface_flowdatabladeVALIDATION_Blade_14.vtu|
|                                   |                     (133.649 MB/s)|
|SU2 ASCII restart                  |restart_flow_databladeVALIDATION_Blade_14.csv|
|                                   |                     (21.1861 MB/s)|
|CSV file                           |surface_flowdatabladeVALIDATION_Blade_14.csv|
|                                   |                     (21.7069 MB/s)|
+-----------------------------------------------------------------------+
+--------------------------------------+
|  Inner_Iter|    Cur_Time|    rms[Rho]|
+--------------------------------------+
|        2210|  0.0000e+00|   -5.760065|
|        2220|  0.0000e+00|   -5.736964|
|        2230|  0.0000e+00|   -5.714650|
|        2240|  0.0000e+00|   -5.772758|
|        2250|  0.0000e+00|   -5.790882|
+-----------------------------------------------------------------------+
|        File Writing Summary       |              Filename             |
+-----------------------------------------------------------------------+
|SU2 binary restart                 |restart_flow_databladeVALIDATION_Blade_14.dat|
|                                   |                     (15966.2 MB/s)|
|Paraview                           |volume_flow_databladeVALIDATION_Blade_14.vtu|
|                                   |                     (1403.26 MB/s)|
|Paraview surface                   |surface_flowdatabladeVALIDATION_Blade_14.vtu|
|                                   |                      (190.65 MB/s)|
|SU2 ASCII restart                  |restart_flow_databladeVALIDATION_Blade_14.csv|
|                                   |                     (21.8558 MB/s)|
|CSV file                           |surface_flowdatabladeVALIDATION_Blade_14.csv|
|                                   |                      (21.264 MB/s)|
+-----------------------------------------------------------------------+
+--------------------------------------+
|  Inner_Iter|    Cur_Time|    rms[Rho]|
+--------------------------------------+
|        2260|  0.0000e+00|   -5.758751|
|        2270|  0.0000e+00|   -5.764364|
|        2280|  0.0000e+00|   -5.815633|
|        2290|  0.0000e+00|   -5.792946|
|        2300|  0.0000e+00|   -5.815946|
+-----------------------------------------------------------------------+
|        File Writing Summary       |              Filename             |
+-----------------------------------------------------------------------+
|SU2 binary restart                 |restart_flow_databladeVALIDATION_Blade_14.dat|
|                                   |                     (18608.8 MB/s)|
|Paraview                           |volume_flow_databladeVALIDATION_Blade_14.vtu|
|                                   |                     (1275.45 MB/s)|
|Paraview surface                   |surface_flowdatabladeVALIDATION_Blade_14.vtu|
|                                   |                      (143.79 MB/s)|
|SU2 ASCII restart                  |restart_flow_databladeVALIDATION_Blade_14.csv|
|                                   |                     (21.4467 MB/s)|
|CSV file                           |surface_flowdatabladeVALIDATION_Blade_14.csv|
|                                   |                     (22.8984 MB/s)|
+-----------------------------------------------------------------------+
+--------------------------------------+
|  Inner_Iter|    Cur_Time|    rms[Rho]|
+--------------------------------------+
|        2310|  0.0000e+00|   -5.875932|
|        2320|  0.0000e+00|   -5.803259|
|        2330|  0.0000e+00|   -5.798587|
|        2340|  0.0000e+00|   -5.803881|
|        2350|  0.0000e+00|   -5.874937|
+-----------------------------------------------------------------------+
|        File Writing Summary       |              Filename             |
+-----------------------------------------------------------------------+
|SU2 binary restart                 |restart_flow_databladeVALIDATION_Blade_14.dat|
|                                   |                     (16501.3 MB/s)|
|Paraview                           |volume_flow_databladeVALIDATION_Blade_14.vtu|
[...]
+-----------------------------------------------------------------------+
|SU2 binary restart                 |restart_flow_databladeVALIDATION_Blade_14.dat|
|                                   |                     (16402.8 MB/s)|
|Paraview                           |volume_flow_databladeVALIDATION_Blade_14.vtu|
|                                   |                      (1340.7 MB/s)|
|Paraview surface                   |surface_flowdatabladeVALIDATION_Blade_14.vtu|
|                                   |                     (141.613 MB/s)|
|SU2 ASCII restart                  |restart_flow_databladeVALIDATION_Blade_14.csv|
|                                   |                      (22.006 MB/s)|
|CSV file                           |surface_flowdatabladeVALIDATION_Blade_14.csv|
|                                   |                     (21.7377 MB/s)|
+-----------------------------------------------------------------------+
+--------------------------------------+
|  Inner_Iter|    Cur_Time|    rms[Rho]|
+--------------------------------------+
|        3160|  0.0000e+00|   -6.527336|
|        3170|  0.0000e+00|   -6.542494|
|        3180|  0.0000e+00|   -6.555455|
|        3190|  0.0000e+00|   -6.531001|
|        3200|  0.0000e+00|   -6.493212|
+-----------------------------------------------------------------------+
|        File Writing Summary       |              Filename             |
+-----------------------------------------------------------------------+
|SU2 binary restart                 |restart_flow_databladeVALIDATION_Blade_14.dat|
|                                   |                     (15941.9 MB/s)|
|Paraview                           |volume_flow_databladeVALIDATION_Blade_14.vtu|
|                                   |                     (1410.98 MB/s)|
|Paraview surface                   |surface_flowdatabladeVALIDATION_Blade_14.vtu|
|                                   |                     (152.051 MB/s)|
|SU2 ASCII restart                  |restart_flow_databladeVALIDATION_Blade_14.csv|
|                                   |                     (22.1049 MB/s)|
|CSV file                           |surface_flowdatabladeVALIDATION_Blade_14.csv|
|                                   |                     (20.5855 MB/s)|
+-----------------------------------------------------------------------+
+--------------------------------------+
|  Inner_Iter|    Cur_Time|    rms[Rho]|
+--------------------------------------+
|        3210|  0.0000e+00|   -6.589812|
|        3220|  0.0000e+00|   -6.629017|
|        3230|  0.0000e+00|   -6.613749|
|        3240|  0.0000e+00|   -6.619088|
|        3250|  0.0000e+00|   -6.700096|
+-----------------------------------------------------------------------+
|        File Writing Summary       |              Filename             |
+-----------------------------------------------------------------------+
|SU2 binary restart                 |restart_flow_databladeVALIDATION_Blade_14.dat|
|                                   |                     (15691.7 MB/s)|
|Paraview                           |volume_flow_databladeVALIDATION_Blade_14.vtu|
|                                   |                     (1417.53 MB/s)|
|Paraview surface                   |surface_flowdatabladeVALIDATION_Blade_14.vtu|
|                                   |                     (143.069 MB/s)|
|SU2 ASCII restart                  |restart_flow_databladeVALIDATION_Blade_14.csv|
|                                   |                     (21.0943 MB/s)|
|CSV file                           |surface_flowdatabladeVALIDATION_Blade_14.csv|
|                                   |                     (18.3844 MB/s)|
+-----------------------------------------------------------------------+
+--------------------------------------+
|  Inner_Iter|    Cur_Time|    rms[Rho]|
+--------------------------------------+
|        3260|  0.0000e+00|   -6.632137|
|        3270|  0.0000e+00|   -6.628921|
|        3280|  0.0000e+00|   -6.719686|
|        3290|  0.0000e+00|   -6.693832|
|        3300|  0.0000e+00|   -6.631503|
+-----------------------------------------------------------------------+
|        File Writing Summary       |              Filename             |
+-----------------------------------------------------------------------+
|SU2 binary restart                 |restart_flow_databladeVALIDATION_Blade_14.dat|
|                                   |                     (16080.7 MB/s)|
|Paraview                           |volume_flow_databladeVALIDATION_Blade_14.vtu|
|                                   |                     (1457.56 MB/s)|
|Paraview surface                   |surface_flowdatabladeVALIDATION_Blade_14.vtu|
|                                   |                     (195.877 MB/s)|
|SU2 ASCII restart                  |restart_flow_databladeVALIDATION_Blade_14.csv|
|                                   |                     (21.9576 MB/s)|
|CSV file                           |surface_flowdatabladeVALIDATION_Blade_14.csv|
|                                   |                     (22.9473 MB/s)|
+-----------------------------------------------------------------------+
+--------------------------------------+
|  Inner_Iter|    Cur_Time|    rms[Rho]|
+--------------------------------------+
|        3310|  0.0000e+00|   -6.637000|
|        3320|  0.0000e+00|   -6.655345|
|        3330|  0.0000e+00|   -6.614077|
|        3340|  0.0000e+00|   -6.558890|
|        3350|  0.0000e+00|   -6.618402|
+-----------------------------------------------------------------------+
|        File Writing Summary       |              Filename             |
+-----------------------------------------------------------------------+
|SU2 binary restart                 |restart_flow_databladeVALIDATION_Blade_14.dat|
|                                   |                     (16022.7 MB/s)|
|Paraview                           |volume_flow_databladeVALIDATION_Blade_14.vtu|
|                                   |                     (1333.32 MB/s)|
|Paraview surface                   |surface_flowdatabladeVALIDATION_Blade_14.vtu|
|                                   |                     (141.857 MB/s)|
|SU2 ASCII restart                  |restart_flow_databladeVALIDATION_Blade_14.csv|
|                                   |                      (21.425 MB/s)|
|CSV file                           |surface_flowdatabladeVALIDATION_Blade_14.csv|
|                                   |                     (22.4673 MB/s)|
+-----------------------------------------------------------------------+
+--------------------------------------+
|  Inner_Iter|    Cur_Time|    rms[Rho]|
+--------------------------------------+
|        3360|  0.0000e+00|   -6.661987|
|        3370|  0.0000e+00|   -6.676094|
|        3380|  0.0000e+00|   -6.711921|
|        3390|  0.0000e+00|   -6.745648|
|        3400|  0.0000e+00|   -6.770772|
+-----------------------------------------------------------------------+
|        File Writing Summary       |              Filename             |
+-----------------------------------------------------------------------+
|SU2 binary restart                 |restart_flow_databladeVALIDATION_Blade_14.dat|
|                                   |                     (15230.2 MB/s)|
|Paraview                           |volume_flow_databladeVALIDATION_Blade_14.vtu|
|                                   |                     (1423.55 MB/s)|
|Paraview surface                   |surface_flowdatabladeVALIDATION_Blade_14.vtu|
|                                   |                     (138.598 MB/s)|
|SU2 ASCII restart                  |restart_flow_databladeVALIDATION_Blade_14.csv|
|                                   |                      (22.117 MB/s)|
|CSV file                           |surface_flowdatabladeVALIDATION_Blade_14.csv|
|                                   |                     (20.8113 MB/s)|
+-----------------------------------------------------------------------+
+--------------------------------------+
|  Inner_Iter|    Cur_Time|    rms[Rho]|
+--------------------------------------+
|        3410|  0.0000e+00|   -6.681266|
|        3420|  0.0000e+00|   -6.694586|
|        3430|  0.0000e+00|   -6.764469|
|        3440|  0.0000e+00|   -6.764483|
|        3450|  0.0000e+00|   -6.704728|
+-----------------------------------------------------------------------+
|        File Writing Summary       |              Filename             |
+-----------------------------------------------------------------------+
|SU2 binary restart                 |restart_flow_databladeVALIDATION_Blade_14.dat|
|                                   |                     (12757.4 MB/s)|
|Paraview                           |volume_flow_databladeVALIDATION_Blade_14.vtu|
|                                   |                     (1412.89 MB/s)|
|Paraview surface                   |surface_flowdatabladeVALIDATION_Blade_14.vtu|
|                                   |                     (163.367 MB/s)|
|SU2 ASCII restart                  |restart_flow_databladeVALIDATION_Blade_14.csv|
|                                   |                     (21.2259 MB/s)|
|CSV file                           |surface_flowdatabladeVALIDATION_Blade_14.csv|
|                                   |                     (21.8214 MB/s)|
+-----------------------------------------------------------------------+
+--------------------------------------+
|  Inner_Iter|    Cur_Time|    rms[Rho]|
+--------------------------------------+
|        3460|  0.0000e+00|   -6.847486|
|        3470|  0.0000e+00|   -6.827280|
|        3480|  0.0000e+00|   -6.778914|
|        3490|  0.0000e+00|   -6.854416|
|        3500|  0.0000e+00|   -6.895698|
+-----------------------------------------------------------------------+
|        File Writing Summary       |              Filename             |
+-----------------------------------------------------------------------+
|SU2 binary restart                 |restart_flow_databladeVALIDATION_Blade_14.dat|
|                                   |                     (16126.8 MB/s)|
|Paraview                           |volume_flow_databladeVALIDATION_Blade_14.vtu|
|                                   |                     (1405.26 MB/s)|
|Paraview surface                   |surface_flowdatabladeVALIDATION_Blade_14.vtu|
|                                   |                     (142.343 MB/s)|
|SU2 ASCII restart                  |restart_flow_databladeVALIDATION_Blade_14.csv|
|                                   |                     (21.9225 MB/s)|
|CSV file                           |surface_flowdatabladeVALIDATION_Blade_14.csv|
|                                   |                     (22.2183 MB/s)|
+-----------------------------------------------------------------------+
+--------------------------------------+
|  Inner_Iter|    Cur_Time|    rms[Rho]|
+--------------------------------------+
|        3510|  0.0000e+00|   -6.842011|
|        3520|  0.0000e+00|   -6.801169|
|        3530|  0.0000e+00|   -6.836207|
|        3540|  0.0000e+00|   -6.838532|
|        3550|  0.0000e+00|   -6.784924|
+-----------------------------------------------------------------------+
|        File Writing Summary       |              Filename             |
+-----------------------------------------------------------------------+
|SU2 binary restart                 |restart_flow_databladeVALIDATION_Blade_14.dat|
|                                   |                     (16388.8 MB/s)|
|Paraview                           |volume_flow_databladeVALIDATION_Blade_14.vtu|
|                                   |                     (1417.73 MB/s)|
|Paraview surface                   |surface_flowdatabladeVALIDATION_Blade_14.vtu|
|                                   |                     (147.238 MB/s)|
|SU2 ASCII restart                  |restart_flow_databladeVALIDATION_Blade_14.csv|
|                                   |                     (21.9899 MB/s)|
|CSV file                           |surface_flowdatabladeVALIDATION_Blade_14.csv|
|                                   |                     (21.3105 MB/s)|
+-----------------------------------------------------------------------+
+--------------------------------------+
|  Inner_Iter|    Cur_Time|    rms[Rho]|
+--------------------------------------+
|        3560|  0.0000e+00|   -6.788793|
|        3570|  0.0000e+00|   -6.866637|
|        3580|  0.0000e+00|   -6.886539|
|        3590|  0.0000e+00|   -6.809268|
|        3600|  0.0000e+00|   -6.915582|
+-----------------------------------------------------------------------+
|        File Writing Summary       |              Filename             |
+-----------------------------------------------------------------------+
|SU2 binary restart                 |restart_flow_databladeVALIDATION_Blade_14.dat|
|                                   |                     (15402.9 MB/s)|
|Paraview                           |volume_flow_databladeVALIDATION_Blade_14.vtu|
|                                   |                     (1414.17 MB/s)|
|Paraview surface                   |surface_flowdatabladeVALIDATION_Blade_14.vtu|
|                                   |                     (145.629 MB/s)|
|SU2 ASCII restart                  |restart_flow_databladeVALIDATION_Blade_14.csv|
|                                   |                     (21.4976 MB/s)|
|CSV file                           |surface_flowdatabladeVALIDATION_Blade_14.csv|
|                                   |                     (22.2103 MB/s)|
+-----------------------------------------------------------------------+
+--------------------------------------+
|  Inner_Iter|    Cur_Time|    rms[Rho]|
+--------------------------------------+
|        3610|  0.0000e+00|   -6.930796|
|        3620|  0.0000e+00|   -6.889315|
|        3630|  0.0000e+00|   -6.905115|
|        3640|  0.0000e+00|   -6.988317|
|        3650|  0.0000e+00|   -6.983719|
+-----------------------------------------------------------------------+
|        File Writing Summary       |              Filename             |
+-----------------------------------------------------------------------+
|SU2 binary restart                 |restart_flow_databladeVALIDATION_Blade_14.dat|
|                                   |                     (15219.1 MB/s)|
|Paraview                           |volume_flow_databladeVALIDATION_Blade_14.vtu|
|                                   |                     (1370.85 MB/s)|
|Paraview surface                   |surface_flowdatabladeVALIDATION_Blade_14.vtu|
|                                   |                     (138.637 MB/s)|
|SU2 ASCII restart                  |restart_flow_databladeVALIDATION_Blade_14.csv|
|                                   |                     (21.1998 MB/s)|
|CSV file                           |surface_flowdatabladeVALIDATION_Blade_14.csv|
|                                   |                     (21.4654 MB/s)|
+-----------------------------------------------------------------------+
+--------------------------------------+
|  Inner_Iter|    Cur_Time|    rms[Rho]|
+--------------------------------------+
|        3660|  0.0000e+00|   -6.880745|
|        3670|  0.0000e+00|   -6.914576|
|        3680|  0.0000e+00|   -6.924421|
|        3690|  0.0000e+00|   -6.882168|
|        3700|  0.0000e+00|   -6.853215|
+-----------------------------------------------------------------------+
|        File Writing Summary       |              Filename             |
+-----------------------------------------------------------------------+
|SU2 binary restart                 |restart_flow_databladeVALIDATION_Blade_14.dat|
|                                   |                     (13978.3 MB/s)|
|Paraview                           |volume_flow_databladeVALIDATION_Blade_14.vtu|
|                                   |                     (1361.54 MB/s)|
|Paraview surface                   |surface_flowdatabladeVALIDATION_Blade_14.vtu|
|                                   |                     (143.778 MB/s)|
|SU2 ASCII restart                  |restart_flow_databladeVALIDATION_Blade_14.csv|
|                                   |                     (21.4946 MB/s)|
|CSV file                           |surface_flowdatabladeVALIDATION_Blade_14.csv|
|                                   |                     (20.8139 MB/s)|
+-----------------------------------------------------------------------+
+--------------------------------------+
|  Inner_Iter|    Cur_Time|    rms[Rho]|
+--------------------------------------+
|        3710|  0.0000e+00|   -6.939528|
|        3720|  0.0000e+00|   -6.978199|
|        3730|  0.0000e+00|   -6.946470|
|        3734|  0.0000e+00|   -7.007166|

----------------------------- Solver Exit -------------------------------
All convergence criteria satisfied.
+-----------------------------------------------------------------------+
|      Convergence Field     |     Value    |   Criterion  |  Converged |
+-----------------------------------------------------------------------+
|                    rms[Rho]|      -7.00717|          < -7|         Yes|
+-----------------------------------------------------------------------+
-------------------------------------------------------------------------
+-----------------------------------------------------------------------+
|        File Writing Summary       |              Filename             |
+-----------------------------------------------------------------------+
|SU2 binary restart                 |restart_flow_databladeVALIDATION_Blade_14.dat|
|                                   |                     (16722.3 MB/s)|
|Paraview                           |volume_flow_databladeVALIDATION_Blade_14.vtu|
|                                   |                     (1365.17 MB/s)|
|Paraview surface                   |surface_flowdatabladeVALIDATION_Blade_14.vtu|
|                                   |                     (132.556 MB/s)|
|SU2 ASCII restart                  |restart_flow_databladeVALIDATION_Blade_14.csv|
|                                   |                     (21.7464 MB/s)|
|CSV file                           |surface_flowdatabladeVALIDATION_Blade_14.csv|
|                                   |                      (20.709 MB/s)|
+-----------------------------------------------------------------------+

--------------------------- Finalizing Solver ---------------------------
Deleted CNumerics container.
Deleted CIntegration container.
Deleted CSolver container.
Deleted CIteration container.
Deleted CInterface container.
Deleted CGeometry container.
Deleted CFreeFormDefBox class.
Deleted CSurfaceMovement class.
Deleted CVolumetricMovement class.
Deleted CConfig container.
Deleted nInst container.
Deleted COutput class.
-------------------------------------------------------------------------


-------------------------- Performance Summary --------------------------
Simulation totals:
   Wall-clock time (hrs):    0.161205 |            Core-hrs:     1.93446
                   Cores:          12 |          DOFs/point:           5
             Points/core:     7285.42 |   Ghost points/core:       168.5
 Ghost/Owned Point Ratio:   0.0231284 | 

Preprocessing phase:
       Preproc. Time (s):    0.618499 |   Preproc. Time (%):    0.106576

Compute phase:
        Compute Time (s):      576.48 |    Compute Time (%):     99.3351
         Iteration count:        3735 |         Avg. s/iter:    0.154345
     Core-s/iter/Mpoints:     20.7066 |           Mpoints/s:    0.579525

Output phase:
         Output Time (s):     3.24015 |     Output Time (%):     0.55832
            Output count:           1 |       Avg. s/output:     3.24015
 Restart Aggr. BW (MB/s): 1.14197e+06 |           MB/s/core:       95164
-------------------------------------------------------------------------


------------------------- Exit Success (SU2_CFD) ------------------------

