
-------------------------------------------------------------------------
|    ___ _   _ ___                                                      |
|   / __| | | |_  )   Release 8.0.1 "Harrier"                           |
|   \__ \ |_| |/ /                                                      |
|   |___/\___//___|   Suite (Computational Fluid Dynamics Code)         |
|                                                                       |
-------------------------------------------------------------------------
| SU2 Project Website: https://su2code.github.io                        |
|                                                                       |
| The SU2 Project is maintained by the SU2 Foundation                   |
| (http://su2foundation.org)                                            |
-------------------------------------------------------------------------
| Copyright 2012-2024, SU2 Contributors                                 |
|                                                                       |
| SU2 is free software; you can redistribute it and/or                  |
| modify it under the terms of the GNU Lesser General Public            |
| License as published by the Free Software Foundation; either          |
| version 2.1 of the License, or (at your option) any later version.    |
|                                                                       |
| SU2 is distributed in the hope that it will be useful,                |
| but WITHOUT ANY WARRANTY; without even the implied warranty of        |
| MERCHANTABILITY or FITNESS FOR A PARTICULAR PURPOSE. See the GNU      |
| Lesser General Public License for more details.                       |
|                                                                       |
| You should have received a copy of the GNU Lesser General Public      |
| License along with SU2. If not, see <http://www.gnu.org/licenses/>.   |
-------------------------------------------------------------------------

Parsing config file for zone 0

----------------- Physical Case Definition ( Zone 0 ) -------------------
Compressible RANS equations.
Turbulence model: Spalart-Allmaras-noft2-BCM
Hybrid RANS/LES: No Hybrid RANS/LES
Mach number: 0.667.
Angle of attack (AoA): -6 deg, and angle of sideslip (AoS): 0 deg.
Reynolds number: 600000. Reference length 1.0021.
No restart solution, use the values at infinity (freestream).
Dimensional simulation.
The reference area will be computed using y(2D) or z(3D) projection.
The semi-span will be computed using the max y(3D) value.
The reference length is 1.0021 m.
Reference origin for moment evaluation is (0, 0, 0).
Surface(s) where the force coefficients are evaluated: blade1.

Surface(s) plotted in the output file: blade1.
Surface(s) to be analyzed in detail: inlet, outlet, blade1.
Input mesh file name: cascade2D_databladeVALIDATION_Blade_20.su2

--------------- Space Numerical Integration ( Zone 0 ) ------------------
Jameson-Schmidt-Turkel scheme (2nd order in space) for the flow inviscid terms.
JST viscous coefficients (2nd & 4th): 0.5, 0.02.
The method includes a grid stretching correction (p = 0.3).
Scalar upwind solver for the turbulence model.
First order integration in space.
Average of gradients with correction (viscous flow terms).
Average of gradients with correction (viscous turbulence terms).
Gradient for upwind reconstruction: inverse-distance weighted Least-Squares.
Gradient for viscous and source terms: inverse-distance weighted Least-Squares.

--------------- Time Numerical Integration  ( Zone 0 ) ------------------
Local time stepping (steady state simulation).
Euler implicit method for the flow equations.
FGMRES is used for solving the linear system.
Using a LU-SGS preconditioning.
Convergence criteria of the linear solver: 0.0001.
Max number of linear iterations: 10.
V Multigrid Cycle, with 3 multigrid levels.
Damping factor for the residual restriction: 0.75.
Damping factor for the correction prolongation: 0.75.
CFL adaptation. Factor down: 0.1, factor up: 1.2,
                lower limit: 0.1, upper limit: 100,
                acceptable linear residual: 0.001.
+-------------------------------------------+
|  MG Level| Presmooth|PostSmooth|CorrectSmo|
+-------------------------------------------+
|         0|         1|         0|         1|
|         1|         2|         2|         2|
|         2|         3|         3|         3|
|         3|         3|         0|         0|
+-------------------------------------------+
Courant-Friedrichs-Lewy number:       12
Euler implicit time integration for the turbulence model.

------------------ Convergence Criteria  ( Zone 0 ) ---------------------
Maximum number of solver subiterations: 7000.
Begin convergence monitoring at iteration 500.
Residual minimum value: 1e-7.
Cauchy series min. value: 1e-10.
Number of Cauchy elements: 100.
Begin windowed time average at iteration 0.

-------------------- Output Information ( Zone 0 ) ----------------------
File writing frequency: 
+------------------------------------+
|                     File| Frequency|
+------------------------------------+
|                  RESTART|        50|
|                 PARAVIEW|        50|
|         SURFACE_PARAVIEW|        50|
|                      CSV|        50|
|              SURFACE_CSV|        50|
+------------------------------------+
Writing the convergence history file every 1 inner iterations.
Writing the screen convergence history every 10 inner iterations.
The tabular file format is CSV (.csv).
Convergence history file name: history_databladeVALIDATION_Blade_20.
Forces breakdown file name: forces_breakdown.dat.
Surface file name: surface_flowdatabladeVALIDATION_Blade_20.
Volume file name: volume_flow_databladeVALIDATION_Blade_20.
Restart file name: restart_flow_databladeVALIDATION_Blade_20.dat.

------------- Config File Boundary Information ( Zone 0 ) ---------------
+-----------------------------------------------------------------------+
|                        Marker Type|                        Marker Name|
+-----------------------------------------------------------------------+
|                  Periodic boundary|               symmetricWallsBOTTOM|
|                                   |                  symmetricWallsTOP|
+-----------------------------------------------------------------------+
|                     Inlet boundary|                              inlet|
+-----------------------------------------------------------------------+
|                    Outlet boundary|                             outlet|
+-----------------------------------------------------------------------+
|                     Heat flux wall|                             blade1|
|                                   |                             blade2|
+-----------------------------------------------------------------------+

-------------------- Output Preprocessing ( Zone 0 ) --------------------
  Info: Ignoring the following screen output fields:
  LINSOL_ITER_TRANS, LINSOL_RESIDUAL_TRANS
Screen output fields: INNER_ITER, CUR_TIME, RMS_DENSITY
  Info: Ignoring the following history output groups:
  RMS_TKE, RMS_DISSIPATION
History output group(s): INNER_ITER, WALL_TIME, RMS_DENSITY, RMS_MOMENTUM-X, RMS_ENERGY, LINSOL, CFL_NUMBER, FLOW_COEFF_SURF, AERO_COEFF_SURF
Convergence field(s): RMS_DENSITY
Warning: No (valid) fields chosen for time convergence monitoring. Time convergence monitoring inactive.
Volume output fields: COORDINATES, SOLUTION, PRIMITIVE, RESIDUAL, TIMESTEP, MESH_QUALITY, VORTEX_IDENTIFICATION

------------------- Geometry Preprocessing ( Zone 0 ) -------------------
Two dimensional problem.
38583 grid points before partitioning.
58384 volume elements before partitioning.
5 surface markers.
24 boundary elements in index 0 (Marker = inlet).
293 boundary elements in index 1 (Marker = symmetricWallsBOTTOM).
293 boundary elements in index 2 (Marker = symmetricWallsTOP).
24 boundary elements in index 3 (Marker = outlet).
698 boundary elements in index 4 (Marker = blade1).
Executing the partitioning functions.
Building the graph adjacency structure.
Calling ParMETIS... graph partitioning complete (1211 edge cuts).
Distributing ParMETIS coloring.
Rebalancing vertices.
Rebalancing volume element connectivity.
Rebalancing markers and surface elements.
40143 vertices including ghost points. 
59584 interior elements including halo cells. 
41798 triangles.
17786 quadrilaterals.
Establishing MPI communication patterns.
Setting point connectivity.
Renumbering points (Reverse Cuthill McKee Ordering).
Recomputing point connectivity.
Setting element connectivity.
Checking the numerical grid orientation.
All volume elements are correctly orientend.
There has been a re-orientation of 677 LINE surface elements.
Identifying edges and vertices.
Setting the control volume structure.
Area of the computational grid: 3.15893.
Searching for the closest normal neighbors to the surfaces.
Storing a mapping from global to local point index.
Compute the surface curvature.
Max K: 90.6957. Mean K: 3.32007. Standard deviation K: 12.0936.
Checking for periodicity.
WARNING: Periodicity has been detected. Disabling multigrid. 
Computing mesh quality statistics for the dual control volumes.
+--------------------------------------------------------------+
|           Mesh Quality Metric|        Minimum|        Maximum|
+--------------------------------------------------------------+
|    Orthogonality Angle (deg.)|        52.2773|             90|
|     CV Face Area Aspect Ratio|        1.00013|         473.06|
|           CV Sub-Volume Ratio|              1|        12.6696|
+--------------------------------------------------------------+
Finding max control volume width.
Communicating number of neighbors.
Reference length = 1.01515 m.
Wetted area = 2.81968 m.
Area projection in the x-plane = 0.860488 m, y-plane = 1.01515 m.
Max. coordinate in the x-direction = 1.01503 m, y-direction = 0.751932 m.
Min. coordinate in the x-direction = -0.000144534 m, y-direction = -0.108581 m.
Matching the periodic boundary points for marker pair 1.
 Matched 588 points with a max distance of: 1.78713e-13.
Computing wall distances.

-------------------- Solver Preprocessing ( Zone 0 ) --------------------
Viscous flow: Computing pressure using the ideal gas law
based on the free-stream temperature and a density computed
from the Reynolds number.
Force coefficients computed using free-stream values.

-- Models:
+------------------------------------------------------------------------------+
|          Viscosity Model|        Conductivity Model|              Fluid Model|
+------------------------------------------------------------------------------+
|               SUTHERLAND|          CONSTANT_PRANDTL|                IDEAL_GAS|
+------------------------------------------------------------------------------+
-- Fluid properties:
+------------------------------------------------------------------------------+
|                  Name|    Dim. value|    Ref. value|      Unit|Non-dim. value|
+------------------------------------------------------------------------------+
|        Ref. Viscosity|     1.716e-05|             1|   N.s/m^2|     1.716e-05|
|      Sutherland Temp.|        273.15|             1|         K|        273.15|
|     Sutherland Const.|         110.4|             1|         K|         110.4|
+------------------------------------------------------------------------------+
|        Prandtl (Lam.)|             -|             -|         -|          0.72|
|       Prandtl (Turb.)|             -|             -|         -|           0.9|
+------------------------------------------------------------------------------+
|          Gas Constant|       287.058|             1|  N.m/kg.K|       287.058|
|      Spec. Heat Ratio|             -|             -|         -|           1.4|
+------------------------------------------------------------------------------+
-- Initial and free-stream conditions:
+------------------------------------------------------------------------------+
|                  Name|    Dim. value|    Ref. value|      Unit|Non-dim. value|
+------------------------------------------------------------------------------+
|       Static Pressure|       4109.68|             1|        Pa|       4109.68|
|               Density|     0.0477218|             1|    kg/m^3|     0.0477218|
|           Temperature|           300|             1|         K|           300|
|          Total Energy|        242112|             1|   m^2/s^2|        242112|
|            Velocity-X|        230.33|             1|       m/s|        230.33|
|            Velocity-Y|      -24.2086|             1|       m/s|      -24.2086|
|    Velocity Magnitude|       231.598|             1|       m/s|       231.598|
+------------------------------------------------------------------------------+
|             Viscosity|   1.84592e-05|             1|   N.s/m^2|   1.84592e-05|
|          Conductivity|             -|             1|   W/m^2.K|             -|
|     Turb. Kin. Energy|       98.5594|             1|   m^2/s^2|       98.5594|
|     Spec. Dissipation|   2.54802e+06|             1|       1/s|   2.54802e+06|
+------------------------------------------------------------------------------+
|           Mach Number|             -|             -|         -|         0.667|
|       Reynolds Number|             -|             -|         -|        600000|
+------------------------------------------------------------------------------+
Initialize Jacobian structure (Navier-Stokes). MG level: 0.
Initialize Jacobian structure (SA model).

------------------- Numerics Preprocessing ( Zone 0 ) -------------------

----------------- Integration Preprocessing ( Zone 0 ) ------------------

------------------- Iteration Preprocessing ( Zone 0 ) ------------------
Euler/Navier-Stokes/RANS fluid iteration.

------------------------------ Begin Solver -----------------------------

Simulation Run using the Single-zone Driver
WARNING: SU2 was not compiled for an AVX-capable architecture. Performance could be better,
         see https://su2code.github.io/docs_v7/Build-SU2-Linux-MacOS/#compiler-optimizations
+--------------------------------------+
|  Inner_Iter|    Cur_Time|    rms[Rho]|
+--------------------------------------+
|           0|  0.0000e+00|   -2.354459|
|          10|  0.0000e+00|   -3.005594|
|          20|  0.0000e+00|   -2.870297|
|          30|  0.0000e+00|   -2.829261|
|          40|  0.0000e+00|   -2.774469|
|          50|  0.0000e+00|   -2.861799|
+-----------------------------------------------------------------------+
|        File Writing Summary       |              Filename             |
+-----------------------------------------------------------------------+
|SU2 binary restart                 |restart_flow_databladeVALIDATION_Blade_20.dat|
|                                   |                     (8776.54 MB/s)|
|Paraview                           |volume_flow_databladeVALIDATION_Blade_20.vtu|
|                                   |                      (741.52 MB/s)|
|Paraview surface                   |surface_flowdatabladeVALIDATION_Blade_20.vtu|
|                                   |                     (71.6734 MB/s)|
|SU2 ASCII restart                  |restart_flow_databladeVALIDATION_Blade_20.csv|
|                                   |                     (21.9189 MB/s)|
|CSV file                           |surface_flowdatabladeVALIDATION_Blade_20.csv|
|                                   |                     (20.0652 MB/s)|
+-----------------------------------------------------------------------+
+--------------------------------------+
|  Inner_Iter|    Cur_Time|    rms[Rho]|
+--------------------------------------+
|          60|  0.0000e+00|   -2.959268|
|          70|  0.0000e+00|   -2.974027|
|          80|  0.0000e+00|   -2.917261|
|          90|  0.0000e+00|   -2.897714|
|         100|  0.0000e+00|   -2.966820|
+-----------------------------------------------------------------------+
|        File Writing Summary       |              Filename             |
+-----------------------------------------------------------------------+
|SU2 binary restart                 |restart_flow_databladeVALIDATION_Blade_20.dat|
|                                   |                     (8997.99 MB/s)|
|Paraview                           |volume_flow_databladeVALIDATION_Blade_20.vtu|
|                                   |                     (803.466 MB/s)|
|Paraview surface                   |surface_flowdatabladeVALIDATION_Blade_20.vtu|
|                                   |                     (67.4451 MB/s)|
|SU2 ASCII restart                  |restart_flow_databladeVALIDATION_Blade_20.csv|
|                                   |                     (22.1986 MB/s)|
|CSV file                           |surface_flowdatabladeVALIDATION_Blade_20.csv|
|                                   |                     (20.6349 MB/s)|
+-----------------------------------------------------------------------+
+--------------------------------------+
|  Inner_Iter|    Cur_Time|    rms[Rho]|
+--------------------------------------+
|         110|  0.0000e+00|   -2.960807|
|         120|  0.0000e+00|   -2.963975|
|         130|  0.0000e+00|   -3.055825|
|         140|  0.0000e+00|   -3.026848|
|         150|  0.0000e+00|   -2.891336|
+-----------------------------------------------------------------------+
|        File Writing Summary       |              Filename             |
+-----------------------------------------------------------------------+
|SU2 binary restart                 |restart_flow_databladeVALIDATION_Blade_20.dat|
|                                   |                     (7719.08 MB/s)|
|Paraview                           |volume_flow_databladeVALIDATION_Blade_20.vtu|
|                                   |                     (764.285 MB/s)|
|Paraview surface                   |surface_flowdatabladeVALIDATION_Blade_20.vtu|
|                                   |                     (66.9972 MB/s)|
|SU2 ASCII restart                  |restart_flow_databladeVALIDATION_Blade_20.csv|
|                                   |                     (21.5762 MB/s)|
|CSV file                           |surface_flowdatabladeVALIDATION_Blade_20.csv|
|                                   |                     (19.3867 MB/s)|
+-----------------------------------------------------------------------+
+--------------------------------------+
|  Inner_Iter|    Cur_Time|    rms[Rho]|
+--------------------------------------+
|         160|  0.0000e+00|   -2.878840|
|         170|  0.0000e+00|   -2.985650|
|         180|  0.0000e+00|   -3.065200|
|         190|  0.0000e+00|   -3.060319|
|         200|  0.0000e+00|   -3.088672|
+-----------------------------------------------------------------------+
|        File Writing Summary       |              Filename             |
+-----------------------------------------------------------------------+
|SU2 binary restart                 |restart_flow_databladeVALIDATION_Blade_20.dat|
|                                   |                     (9170.31 MB/s)|
|Paraview                           |volume_flow_databladeVALIDATION_Blade_20.vtu|
|                                   |                     (831.382 MB/s)|
|Paraview surface                   |surface_flowdatabladeVALIDATION_Blade_20.vtu|
|                                   |                     (92.0083 MB/s)|
|SU2 ASCII restart                  |restart_flow_databladeVALIDATION_Blade_20.csv|
|                                   |                     (21.8318 MB/s)|
|CSV file                           |surface_flowdatabladeVALIDATION_Blade_20.csv|
|                                   |                     (20.8396 MB/s)|
+-----------------------------------------------------------------------+
+--------------------------------------+
|  Inner_Iter|    Cur_Time|    rms[Rho]|
+--------------------------------------+
|         210|  0.0000e+00|   -3.096410|
|         220|  0.0000e+00|   -3.070743|
|         230|  0.0000e+00|   -3.067661|
|         240|  0.0000e+00|   -3.121992|
|         250|  0.0000e+00|   -3.115123|
+-----------------------------------------------------------------------+
|        File Writing Summary       |              Filename             |
+-----------------------------------------------------------------------+
|SU2 binary restart                 |restart_flow_databladeVALIDATION_Blade_20.dat|
|                                   |                     (9061.14 MB/s)|
|Paraview                           |volume_flow_databladeVALIDATION_Blade_20.vtu|
|                                   |                     (847.643 MB/s)|
|Paraview surface                   |surface_flowdatabladeVALIDATION_Blade_20.vtu|
|                                   |                     (89.7934 MB/s)|
|SU2 ASCII restart                  |restart_flow_databladeVALIDATION_Blade_20.csv|
|                                   |                     (21.8628 MB/s)|
|CSV file                           |surface_flowdatabladeVALIDATION_Blade_20.csv|
|                                   |                     (19.6436 MB/s)|
+-----------------------------------------------------------------------+
+--------------------------------------+
|  Inner_Iter|    Cur_Time|    rms[Rho]|
+--------------------------------------+
|         260|  0.0000e+00|   -3.156655|
|         270|  0.0000e+00|   -3.198713|
|         280|  0.0000e+00|   -3.241263|
|         290|  0.0000e+00|   -3.255742|
|         300|  0.0000e+00|   -3.245674|
+-----------------------------------------------------------------------+
|        File Writing Summary       |              Filename             |
+-----------------------------------------------------------------------+
|SU2 binary restart                 |restart_flow_databladeVALIDATION_Blade_20.dat|
|                                   |                     (9072.42 MB/s)|
|Paraview                           |volume_flow_databladeVALIDATION_Blade_20.vtu|
|                                   |                     (842.848 MB/s)|
|Paraview surface                   |surface_flowdatabladeVALIDATION_Blade_20.vtu|
|                                   |                     (68.8699 MB/s)|
|SU2 ASCII restart                  |restart_flow_databladeVALIDATION_Blade_20.csv|
|                                   |                     (21.8284 MB/s)|
|CSV file                           |surface_flowdatabladeVALIDATION_Blade_20.csv|
|                                   |                     (20.5634 MB/s)|
+-----------------------------------------------------------------------+
+--------------------------------------+
|  Inner_Iter|    Cur_Time|    rms[Rho]|
+--------------------------------------+
|         310|  0.0000e+00|   -3.241133|
|         320|  0.0000e+00|   -3.266360|
|         330|  0.0000e+00|   -3.308904|
|         340|  0.0000e+00|   -3.316705|
|         350|  0.0000e+00|   -3.313462|
+-----------------------------------------------------------------------+
|        File Writing Summary       |              Filename             |
+-----------------------------------------------------------------------+
|SU2 binary restart                 |restart_flow_databladeVALIDATION_Blade_20.dat|
|                                   |                     (9776.86 MB/s)|
|Paraview                           |volume_flow_databladeVALIDATION_Blade_20.vtu|
|                                   |                       (851.4 MB/s)|
|Paraview surface                   |surface_flowdatabladeVALIDATION_Blade_20.vtu|
|                                   |                     (65.2475 MB/s)|
|SU2 ASCII restart                  |restart_flow_databladeVALIDATION_Blade_20.csv|
|                                   |                     (22.0038 MB/s)|
|CSV file                           |surface_flowdatabladeVALIDATION_Blade_20.csv|
|                                   |                     (20.9975 MB/s)|
+-----------------------------------------------------------------------+
+--------------------------------------+
|  Inner_Iter|    Cur_Time|    rms[Rho]|
+--------------------------------------+
|         360|  0.0000e+00|   -3.353863|
|         370|  0.0000e+00|   -3.364472|
|         380|  0.0000e+00|   -3.334450|
|         390|  0.0000e+00|   -3.412881|
|         400|  0.0000e+00|   -3.471980|
+-----------------------------------------------------------------------+
|        File Writing Summary       |              Filename             |
+-----------------------------------------------------------------------+
|SU2 binary restart                 |restart_flow_databladeVALIDATION_Blade_20.dat|
|                                   |                     (9094.27 MB/s)|
|Paraview                           |volume_flow_databladeVALIDATION_Blade_20.vtu|
|                                   |                     (853.181 MB/s)|
|Paraview surface                   |surface_flowdatabladeVALIDATION_Blade_20.vtu|
|                                   |                     (84.4778 MB/s)|
|SU2 ASCII restart                  |restart_flow_databladeVALIDATION_Blade_20.csv|
|                                   |                     (21.5038 MB/s)|
|CSV file                           |surface_flowdatabladeVALIDATION_Blade_20.csv|
|                                   |                       (20.02 MB/s)|
+-----------------------------------------------------------------------+
+--------------------------------------+
|  Inner_Iter|    Cur_Time|    rms[Rho]|
+--------------------------------------+
|         410|  0.0000e+00|   -3.380187|
|         420|  0.0000e+00|   -3.462433|
|         430|  0.0000e+00|   -3.485692|
|         440|  0.0000e+00|   -3.606500|
|         450|  0.0000e+00|   -3.562208|
+-----------------------------------------------------------------------+
|        File Writing Summary       |              Filename             |
+-----------------------------------------------------------------------+
|SU2 binary restart                 |restart_flow_databladeVALIDATION_Blade_20.dat|
|                                   |                      (9514.2 MB/s)|
|Paraview                           |volume_flow_databladeVALIDATION_Blade_20.vtu|
|                                   |                      (851.67 MB/s)|
|Paraview surface                   |surface_flowdatabladeVALIDATION_Blade_20.vtu|
|                                   |                     (73.1776 MB/s)|
|SU2 ASCII restart                  |restart_flow_databladeVALIDATION_Blade_20.csv|
|                                   |                     (21.9954 MB/s)|
|CSV file                           |surface_flowdatabladeVALIDATION_Blade_20.csv|
|                                   |                     (20.3522 MB/s)|
+-----------------------------------------------------------------------+
+--------------------------------------+
|  Inner_Iter|    Cur_Time|    rms[Rho]|
+--------------------------------------+
|         460|  0.0000e+00|   -3.655796|
|         470|  0.0000e+00|   -3.672068|
|         480|  0.0000e+00|   -3.712771|
|         490|  0.0000e+00|   -3.683299|
|         500|  0.0000e+00|   -3.768092|
+-----------------------------------------------------------------------+
|        File Writing Summary       |              Filename             |
+-----------------------------------------------------------------------+
|SU2 binary restart                 |restart_flow_databladeVALIDATION_Blade_20.dat|
|                                   |                     (10202.3 MB/s)|
|Paraview                           |volume_flow_databladeVALIDATION_Blade_20.vtu|
|                                   |                     (831.748 MB/s)|
|Paraview surface                   |surface_flowdatabladeVALIDATION_Blade_20.vtu|
|                                   |                     (75.2301 MB/s)|
|SU2 ASCII restart                  |restart_flow_databladeVALIDATION_Blade_20.csv|
|                                   |                     (21.7697 MB/s)|
|CSV file                           |surface_flowdatabladeVALIDATION_Blade_20.csv|
|                                   |                      (20.487 MB/s)|
+-----------------------------------------------------------------------+
+--------------------------------------+
|  Inner_Iter|    Cur_Time|    rms[Rho]|
+--------------------------------------+
|         510|  0.0000e+00|   -3.824608|
|         520|  0.0000e+00|   -3.813432|
|         530|  0.0000e+00|   -3.804076|
|         540|  0.0000e+00|   -3.896400|
|         550|  0.0000e+00|   -3.901646|
+-----------------------------------------------------------------------+
|        File Writing Summary       |              Filename             |
+-----------------------------------------------------------------------+
|SU2 binary restart                 |restart_flow_databladeVALIDATION_Blade_20.dat|
|                                   |                     (8667.65 MB/s)|
|Paraview                           |volume_flow_databladeVALIDATION_Blade_20.vtu|
|                                   |                     (807.673 MB/s)|
|Paraview surface                   |surface_flowdatabladeVALIDATION_Blade_20.vtu|
|                                   |                     (74.9628 MB/s)|
|SU2 ASCII restart                  |restart_flow_databladeVALIDATION_Blade_20.csv|
|                                   |                     (21.4277 MB/s)|
|CSV file                           |surface_flowdatabladeVALIDATION_Blade_20.csv|
|                                   |                      (18.293 MB/s)|
+-----------------------------------------------------------------------+
+--------------------------------------+
|  Inner_Iter|    Cur_Time|    rms[Rho]|
+--------------------------------------+
|         560|  0.0000e+00|   -3.866078|
|         570|  0.0000e+00|   -3.922062|
|         580|  0.0000e+00|   -3.968132|
|         590|  0.0000e+00|   -3.936329|
|         600|  0.0000e+00|   -3.921354|
+-----------------------------------------------------------------------+
|        File Writing Summary       |              Filename             |
+-----------------------------------------------------------------------+
|SU2 binary restart                 |restart_flow_databladeVALIDATION_Blade_20.dat|
|                                   |                     (9187.66 MB/s)|
|Paraview                           |volume_flow_databladeVALIDATION_Blade_20.vtu|
|                                   |                     (792.058 MB/s)|
|Paraview surface                   |surface_flowdatabladeVALIDATION_Blade_20.vtu|
|                                   |                     (72.1182 MB/s)|
|SU2 ASCII restart                  |restart_flow_databladeVALIDATION_Blade_20.csv|
|                                   |                     (22.0548 MB/s)|
|CSV file                           |surface_flowdatabladeVALIDATION_Blade_20.csv|
|                                   |                     (20.1514 MB/s)|
+-----------------------------------------------------------------------+
+--------------------------------------+
|  Inner_Iter|    Cur_Time|    rms[Rho]|
+--------------------------------------+
|         610|  0.0000e+00|   -4.020468|
|         620|  0.0000e+00|   -4.056121|
|         630|  0.0000e+00|   -4.038342|
|         640|  0.0000e+00|   -4.029424|
|         650|  0.0000e+00|   -4.106703|
+-----------------------------------------------------------------------+
|        File Writing Summary       |              Filename             |
+-----------------------------------------------------------------------+
|SU2 binary restart                 |restart_flow_databladeVALIDATION_Blade_20.dat|
|                                   |                     (8505.02 MB/s)|
|Paraview                           |volume_flow_databladeVALIDATION_Blade_20.vtu|
|                                   |                     (788.966 MB/s)|
|Paraview surface                   |surface_flowdatabladeVALIDATION_Blade_20.vtu|
|                                   |                     (67.8876 MB/s)|
|SU2 ASCII restart                  |restart_flow_databladeVALIDATION_Blade_20.csv|
|                                   |                     (21.6023 MB/s)|
|CSV file                           |surface_flowdatabladeVALIDATION_Blade_20.csv|
|                                   |                     (18.6963 MB/s)|
+-----------------------------------------------------------------------+
+--------------------------------------+
|  Inner_Iter|    Cur_Time|    rms[Rho]|
+--------------------------------------+
|         660|  0.0000e+00|   -4.085214|
|         670|  0.0000e+00|   -4.040838|
|         680|  0.0000e+00|   -4.107858|
|         690|  0.0000e+00|   -4.152425|
|         700|  0.0000e+00|   -4.134582|
+-----------------------------------------------------------------------+
|        File Writing Summary       |              Filename             |
+-----------------------------------------------------------------------+
|SU2 binary restart                 |restart_flow_databladeVALIDATION_Blade_20.dat|
|                                   |                     (9808.83 MB/s)|
|Paraview                           |volume_flow_databladeVALIDATION_Blade_20.vtu|
|                                   |                     (842.878 MB/s)|
|Paraview surface                   |surface_flowdatabladeVALIDATION_Blade_20.vtu|
|                                   |                     (70.7971 MB/s)|
|SU2 ASCII restart                  |restart_flow_databladeVALIDATION_Blade_20.csv|
|                                   |                     (22.2777 MB/s)|
|CSV file                           |surface_flowdatabladeVALIDATION_Blade_20.csv|
|                                   |                     (20.8688 MB/s)|
+-----------------------------------------------------------------------+
+--------------------------------------+
|  Inner_Iter|    Cur_Time|    rms[Rho]|
+--------------------------------------+
|         710|  0.0000e+00|   -4.084214|
|         720|  0.0000e+00|   -4.162618|
|         730|  0.0000e+00|   -4.162368|
|         740|  0.0000e+00|   -4.133937|
|         750|  0.0000e+00|   -4.179213|
+-----------------------------------------------------------------------+
|        File Writing Summary       |              Filename             |
+-----------------------------------------------------------------------+
|SU2 binary restart                 |restart_flow_databladeVALIDATION_Blade_20.dat|
|                                   |                     (9110.51 MB/s)|
|Paraview                           |volume_flow_databladeVALIDATION_Blade_20.vtu|
|                                   |                     (819.606 MB/s)|
|Paraview surface                   |surface_flowdatabladeVALIDATION_Blade_20.vtu|
|                                   |                     (72.6638 MB/s)|
|SU2 ASCII restart                  |restart_flow_databladeVALIDATION_Blade_20.csv|
|                                   |                     (22.3108 MB/s)|
|CSV file                           |surface_flowdatabladeVALIDATION_Blade_20.csv|
|                                   |                     (20.2522 MB/s)|
+-----------------------------------------------------------------------+
+--------------------------------------+
|  Inner_Iter|    Cur_Time|    rms[Rho]|
+--------------------------------------+
|         760|  0.0000e+00|   -4.245989|
|         770|  0.0000e+00|   -4.180404|
|         780|  0.0000e+00|   -4.252529|
|         790|  0.0000e+00|   -4.288617|
|         800|  0.0000e+00|   -4.285430|
+-----------------------------------------------------------------------+
|        File Writing Summary       |              Filename             |
+-----------------------------------------------------------------------+
|SU2 binary restart                 |restart_flow_databladeVALIDATION_Blade_20.dat|
|                                   |                     (9352.79 MB/s)|
|Paraview                           |volume_flow_databladeVALIDATION_Blade_20.vtu|
|                                   |                     (768.472 MB/s)|
|Paraview surface                   |surface_flowdatabladeVALIDATION_Blade_20.vtu|
|                                   |                     (71.7408 MB/s)|
|SU2 ASCII restart                  |restart_flow_databladeVALIDATION_Blade_20.csv|
|                                   |                     (21.9751 MB/s)|
|CSV file                           |surface_flowdatabladeVALIDATION_Blade_20.csv|
|                                   |                     (20.3434 MB/s)|
+-----------------------------------------------------------------------+
+--------------------------------------+
|  Inner_Iter|    Cur_Time|    rms[Rho]|
+--------------------------------------+
|         810|  0.0000e+00|   -4.220608|
|         820|  0.0000e+00|   -4.345097|
|         830|  0.0000e+00|   -4.344218|
|         840|  0.0000e+00|   -4.295067|
|         850|  0.0000e+00|   -4.364828|
+-----------------------------------------------------------------------+
|        File Writing Summary       |              Filename             |
+-----------------------------------------------------------------------+
|SU2 binary restart                 |restart_flow_databladeVALIDATION_Blade_20.dat|
|                                   |                     (8603.31 MB/s)|
|Paraview                           |volume_flow_databladeVALIDATION_Blade_20.vtu|
|                                   |                     (782.195 MB/s)|
|Paraview surface                   |surface_flowdatabladeVALIDATION_Blade_20.vtu|
|                                   |                     (73.8481 MB/s)|
|SU2 ASCII restart                  |restart_flow_databladeVALIDATION_Blade_20.csv|
|                                   |                     (21.6828 MB/s)|
|CSV file                           |surface_flowdatabladeVALIDATION_Blade_20.csv|
|                                   |                     (19.9432 MB/s)|
+-----------------------------------------------------------------------+
+--------------------------------------+
|  Inner_Iter|    Cur_Time|    rms[Rho]|
+--------------------------------------+
|         860|  0.0000e+00|   -4.406148|
|         870|  0.0000e+00|   -4.386231|
|         880|  0.0000e+00|   -4.428169|
|         890|  0.0000e+00|   -4.468676|
|         900|  0.0000e+00|   -4.422646|
+-----------------------------------------------------------------------+
|        File Writing Summary       |              Filename             |
+-----------------------------------------------------------------------+
|SU2 binary restart                 |restart_flow_databladeVALIDATION_Blade_20.dat|
|                                   |                     (9294.83 MB/s)|
|Paraview                           |volume_flow_databladeVALIDATION_Blade_20.vtu|
|                                   |                     (755.442 MB/s)|
|Paraview surface                   |surface_flowdatabladeVALIDATION_Blade_20.vtu|
|                                   |                     (73.3382 MB/s)|
|SU2 ASCII restart                  |restart_flow_databladeVALIDATION_Blade_20.csv|
|                                   |                     (21.9227 MB/s)|
|CSV file                           |surface_flowdatabladeVALIDATION_Blade_20.csv|
|                                   |                     (18.6785 MB/s)|
+-----------------------------------------------------------------------+
+--------------------------------------+
|  Inner_Iter|    Cur_Time|    rms[Rho]|
+--------------------------------------+
|         910|  0.0000e+00|   -4.464845|
|         920|  0.0000e+00|   -4.512312|
|         930|  0.0000e+00|   -4.469958|
|         940|  0.0000e+00|   -4.430618|
|         950|  0.0000e+00|   -4.523120|
+-----------------------------------------------------------------------+
|        File Writing Summary       |              Filename             |
+-----------------------------------------------------------------------+
|SU2 binary restart                 |restart_flow_databladeVALIDATION_Blade_20.dat|
|                                   |                      (8915.4 MB/s)|
|Paraview                           |volume_flow_databladeVALIDATION_Blade_20.vtu|
|                                   |                     (830.847 MB/s)|
|Paraview surface                   |surface_flowdatabladeVALIDATION_Blade_20.vtu|
|                                   |                     (69.5417 MB/s)|
|SU2 ASCII restart                  |restart_flow_databladeVALIDATION_Blade_20.csv|
|                                   |                     (21.3763 MB/s)|
|CSV file                           |surface_flowdatabladeVALIDATION_Blade_20.csv|
|                                   |                     (18.5796 MB/s)|
+-----------------------------------------------------------------------+
+--------------------------------------+
|  Inner_Iter|    Cur_Time|    rms[Rho]|
+--------------------------------------+
|         960|  0.0000e+00|   -4.539626|
|         970|  0.0000e+00|   -4.454779|
|         980|  0.0000e+00|   -4.565413|
|         990|  0.0000e+00|   -4.546279|
|        1000|  0.0000e+00|   -4.505255|
+-----------------------------------------------------------------------+
|        File Writing Summary       |              Filename             |
+-----------------------------------------------------------------------+
|SU2 binary restart                 |restart_flow_databladeVALIDATION_Blade_20.dat|
|                                   |                     (9266.12 MB/s)|
|Paraview                           |volume_flow_databladeVALIDATION_Blade_20.vtu|
|                                   |                     (850.963 MB/s)|
|Paraview surface                   |surface_flowdatabladeVALIDATION_Blade_20.vtu|
|                                   |                     (88.1695 MB/s)|
|SU2 ASCII restart                  |restart_flow_databladeVALIDATION_Blade_20.csv|
|                                   |                     (22.1865 MB/s)|
|CSV file                           |surface_flowdatabladeVALIDATION_Blade_20.csv|
|                                   |                     (20.9671 MB/s)|
+-----------------------------------------------------------------------+
+--------------------------------------+
|  Inner_Iter|    Cur_Time|    rms[Rho]|
+--------------------------------------+
|        1010|  0.0000e+00|   -4.551353|
|        1020|  0.0000e+00|   -4.645937|
|        1030|  0.0000e+00|   -4.646117|
|        1040|  0.0000e+00|   -4.551119|
|        1050|  0.0000e+00|   -4.670918|
+-----------------------------------------------------------------------+
|        File Writing Summary       |              Filename             |
+-----------------------------------------------------------------------+
|SU2 binary restart                 |restart_flow_databladeVALIDATION_Blade_20.dat|
|                                   |                     (9188.49 MB/s)|
|Paraview                           |volume_flow_databladeVALIDATION_Blade_20.vtu|
|                                   |                      (760.75 MB/s)|
|Paraview surface                   |surface_flowdatabladeVALIDATION_Blade_20.vtu|
|                                   |                     (73.0842 MB/s)|
|SU2 ASCII restart                  |restart_flow_databladeVALIDATION_Blade_20.csv|
|                                   |                     (21.6164 MB/s)|
|CSV file                           |surface_flowdatabladeVALIDATION_Blade_20.csv|
|                                   |                     (19.8867 MB/s)|
+-----------------------------------------------------------------------+
+--------------------------------------+
|  Inner_Iter|    Cur_Time|    rms[Rho]|
+--------------------------------------+
|        1060|  0.0000e+00|   -4.670137|
|        1070|  0.0000e+00|   -4.648349|
|        1080|  0.0000e+00|   -4.712393|
|        1090|  0.0000e+00|   -4.758704|
|        1100|  0.0000e+00|   -4.752736|
+-----------------------------------------------------------------------+
|        File Writing Summary       |              Filename             |
+-----------------------------------------------------------------------+
|SU2 binary restart                 |restart_flow_databladeVALIDATION_Blade_20.dat|
|                                   |                     (9125.19 MB/s)|
|Paraview                           |volume_flow_databladeVALIDATION_Blade_20.vtu|
|                                   |                      (799.12 MB/s)|
|Paraview surface                   |surface_flowdatabladeVALIDATION_Blade_20.vtu|
|                                   |                     (73.7462 MB/s)|
|SU2 ASCII restart                  |restart_flow_databladeVALIDATION_Blade_20.csv|
|                                   |                     (22.1783 MB/s)|
|CSV file                           |surface_flowdatabladeVALIDATION_Blade_20.csv|
|                                   |                     (20.3351 MB/s)|
+-----------------------------------------------------------------------+
+--------------------------------------+
|  Inner_Iter|    Cur_Time|    rms[Rho]|
+--------------------------------------+
|        1110|  0.0000e+00|   -4.735413|
|        1120|  0.0000e+00|   -4.783880|
|        1130|  0.0000e+00|   -4.799420|
|        1140|  0.0000e+00|   -4.765521|
|        1150|  0.0000e+00|   -4.743367|
+-----------------------------------------------------------------------+
|        File Writing Summary       |              Filename             |
+-----------------------------------------------------------------------+
|SU2 binary restart                 |restart_flow_databladeVALIDATION_Blade_20.dat|
|                                   |                     (9082.93 MB/s)|
|Paraview                           |volume_flow_databladeVALIDATION_Blade_20.vtu|
|                                   |                     (859.958 MB/s)|
|Paraview surface                   |surface_flowdatabladeVALIDATION_Blade_20.vtu|
|                                   |                     (75.3219 MB/s)|
|SU2 ASCII restart                  |restart_flow_databladeVALIDATION_Blade_20.csv|
|                                   |                     (22.0298 MB/s)|
|CSV file                           |surface_flowdatabladeVALIDATION_Blade_20.csv|
|                                   |                     (20.2598 MB/s)|
+-----------------------------------------------------------------------+
+--------------------------------------+
|  Inner_Iter|    Cur_Time|    rms[Rho]|
+--------------------------------------+
|        1160|  0.0000e+00|   -4.822303|
|        1170|  0.0000e+00|   -4.817727|
|        1180|  0.0000e+00|   -4.743187|
|        1190|  0.0000e+00|   -4.808892|
|        1200|  0.0000e+00|   -4.817854|
+-----------------------------------------------------------------------+
|        File Writing Summary       |              Filename             |
+-----------------------------------------------------------------------+
|SU2 binary restart                 |restart_flow_databladeVALIDATION_Blade_20.dat|
|                                   |                     (7401.47 MB/s)|
|Paraview                           |volume_flow_databladeVALIDATION_Blade_20.vtu|
|                                   |                     (836.197 MB/s)|
|Paraview surface                   |surface_flowdatabladeVALIDATION_Blade_20.vtu|
|                                   |                      (68.861 MB/s)|
|SU2 ASCII restart                  |restart_flow_databladeVALIDATION_Blade_20.csv|
|                                   |                     (21.8102 MB/s)|
|CSV file                           |surface_flowdatabladeVALIDATION_Blade_20.csv|
|                                   |                      (19.989 MB/s)|
+-----------------------------------------------------------------------+
+--------------------------------------+
|  Inner_Iter|    Cur_Time|    rms[Rho]|
+--------------------------------------+
|        1210|  0.0000e+00|   -4.761810|
|        1220|  0.0000e+00|   -4.832414|
|        1230|  0.0000e+00|   -4.889631|
|        1240|  0.0000e+00|   -4.886447|
|        1250|  0.0000e+00|   -4.863408|
+-----------------------------------------------------------------------+
|        File Writing Summary       |              Filename             |
+-----------------------------------------------------------------------+
|SU2 binary restart                 |restart_flow_databladeVALIDATION_Blade_20.dat|
|                                   |                     (9605.59 MB/s)|
|Paraview                           |volume_flow_databladeVALIDATION_Blade_20.vtu|
|                                   |                     (790.119 MB/s)|
|Paraview surface                   |surface_flowdatabladeVALIDATION_Blade_20.vtu|
|                                   |                     (74.1382 MB/s)|
|SU2 ASCII restart                  |restart_flow_databladeVALIDATION_Blade_20.csv|
|                                   |                     (21.7344 MB/s)|
|CSV file                           |surface_flowdatabladeVALIDATION_Blade_20.csv|
|                                   |                     (19.1159 MB/s)|
+-----------------------------------------------------------------------+
+--------------------------------------+
|  Inner_Iter|    Cur_Time|    rms[Rho]|
+--------------------------------------+
|        1260|  0.0000e+00|   -4.952143|
|        1270|  0.0000e+00|   -4.964058|
|        1280|  0.0000e+00|   -4.957996|
|        1290|  0.0000e+00|   -4.983972|
|        1300|  0.0000e+00|   -5.036407|
+-----------------------------------------------------------------------+
|        File Writing Summary       |              Filename             |
+-----------------------------------------------------------------------+
|SU2 binary restart                 |restart_flow_databladeVALIDATION_Blade_20.dat|
|                                   |                     (5090.19 MB/s)|
|Paraview                           |volume_flow_databladeVALIDATION_Blade_20.vtu|
|                                   |                     (843.296 MB/s)|
|Paraview surface                   |surface_flowdatabladeVALIDATION_Blade_20.vtu|
|                                   |                     (70.7722 MB/s)|
|SU2 ASCII restart                  |restart_flow_databladeVALIDATION_Blade_20.csv|
|                                   |                     (21.8186 MB/s)|
|CSV file                           |surface_flowdatabladeVALIDATION_Blade_20.csv|
|                                   |                     (21.0336 MB/s)|
+-----------------------------------------------------------------------+
+--------------------------------------+
|  Inner_Iter|    Cur_Time|    rms[Rho]|
+--------------------------------------+
|        1310|  0.0000e+00|   -5.030975|
|        1320|  0.0000e+00|   -4.982089|
|        1330|  0.0000e+00|   -5.026866|
|        1340|  0.0000e+00|   -5.066142|
|        1350|  0.0000e+00|   -5.077511|
+-----------------------------------------------------------------------+
|        File Writing Summary       |              Filename             |
+-----------------------------------------------------------------------+
|SU2 binary restart                 |restart_flow_databladeVALIDATION_Blade_20.dat|
|                                   |                      (9812.6 MB/s)|
|Paraview                           |volume_flow_databladeVALIDATION_Blade_20.vtu|
|                                   |                     (857.093 MB/s)|
|Paraview surface                   |surface_flowdatabladeVALIDATION_Blade_20.vtu|
|                                   |                     (70.1715 MB/s)|
|SU2 ASCII restart                  |restart_flow_databladeVALIDATION_Blade_20.csv|
|                                   |                     (21.9946 MB/s)|
|CSV file                           |surface_flowdatabladeVALIDATION_Blade_20.csv|
|                                   |                     (19.3043 MB/s)|
+-----------------------------------------------------------------------+
+--------------------------------------+
|  Inner_Iter|    Cur_Time|    rms[Rho]|
+--------------------------------------+
|        1360|  0.0000e+00|   -5.043792|
|        1370|  0.0000e+00|   -5.113611|
|        1380|  0.0000e+00|   -5.126974|
|        1390|  0.0000e+00|   -5.113110|
|        1400|  0.0000e+00|   -5.101771|
+-----------------------------------------------------------------------+
|        File Writing Summary       |              Filename             |
+-----------------------------------------------------------------------+
|SU2 binary restart                 |restart_flow_databladeVALIDATION_Blade_20.dat|
|                                   |                     (9118.66 MB/s)|
|Paraview                           |volume_flow_databladeVALIDATION_Blade_20.vtu|
|                                   |                     (747.009 MB/s)|
|Paraview surface                   |surface_flowdatabladeVALIDATION_Blade_20.vtu|
|                                   |                     (38.9061 MB/s)|
|SU2 ASCII restart                  |restart_flow_databladeVALIDATION_Blade_20.csv|
|                                   |                     (21.5449 MB/s)|
|CSV file                           |surface_flowdatabladeVALIDATION_Blade_20.csv|
|                                   |                     (18.2504 MB/s)|
+-----------------------------------------------------------------------+
+--------------------------------------+
|  Inner_Iter|    Cur_Time|    rms[Rho]|
+--------------------------------------+
|        1410|  0.0000e+00|   -5.156260|
|        1420|  0.0000e+00|   -5.153658|
|        1430|  0.0000e+00|   -5.117966|
|        1440|  0.0000e+00|   -5.132771|
|        1450|  0.0000e+00|   -5.185531|
+-----------------------------------------------------------------------+
|        File Writing Summary       |              Filename             |
+-----------------------------------------------------------------------+
|SU2 binary restart                 |restart_flow_databladeVALIDATION_Blade_20.dat|
|                                   |                     (9262.76 MB/s)|
|Paraview                           |volume_flow_databladeVALIDATION_Blade_20.vtu|
|                                   |                     (750.789 MB/s)|
|Paraview surface                   |surface_flowdatabladeVALIDATION_Blade_20.vtu|
|                                   |                     (91.2337 MB/s)|
|SU2 ASCII restart                  |restart_flow_databladeVALIDATION_Blade_20.csv|
|                                   |                     (21.5143 MB/s)|
|CSV file                           |surface_flowdatabladeVALIDATION_Blade_20.csv|
|                                   |                     (20.2986 MB/s)|
+-----------------------------------------------------------------------+
+--------------------------------------+
|  Inner_Iter|    Cur_Time|    rms[Rho]|
+--------------------------------------+
|        1460|  0.0000e+00|   -5.201846|
|        1470|  0.0000e+00|   -5.175142|
|        1480|  0.0000e+00|   -5.222554|
|        1490|  0.0000e+00|   -5.237872|
|        1500|  0.0000e+00|   -5.206867|
+-----------------------------------------------------------------------+
|        File Writing Summary       |              Filename             |
+-----------------------------------------------------------------------+
|SU2 binary restart                 |restart_flow_databladeVALIDATION_Blade_20.dat|
|                                   |                     (9297.37 MB/s)|
|Paraview                           |volume_flow_databladeVALIDATION_Blade_20.vtu|
|                                   |                     (850.496 MB/s)|
|Paraview surface                   |surface_flowdatabladeVALIDATION_Blade_20.vtu|
|                                   |                     (73.0743 MB/s)|
|SU2 ASCII restart                  |restart_flow_databladeVALIDATION_Blade_20.csv|
|                                   |                     (21.6084 MB/s)|
|CSV file                           |surface_flowdatabladeVALIDATION_Blade_20.csv|
|                                   |                     (20.0046 MB/s)|
+-----------------------------------------------------------------------+
+--------------------------------------+
|  Inner_Iter|    Cur_Time|    rms[Rho]|
+--------------------------------------+
|        1510|  0.0000e+00|   -5.174943|
|        1520|  0.0000e+00|   -5.251141|
|        1530|  0.0000e+00|   -5.263855|
|        1540|  0.0000e+00|   -5.247155|
|        1550|  0.0000e+00|   -5.312738|
+-----------------------------------------------------------------------+
|        File Writing Summary       |              Filename             |
+-----------------------------------------------------------------------+
|SU2 binary restart                 |restart_flow_databladeVALIDATION_Blade_20.dat|
|                                   |                     (9412.35 MB/s)|
|Paraview                           |volume_flow_databladeVALIDATION_Blade_20.vtu|
|                                   |                     (818.884 MB/s)|
|Paraview surface                   |surface_flowdatabladeVALIDATION_Blade_20.vtu|
|                                   |                     (67.9048 MB/s)|
|SU2 ASCII restart                  |restart_flow_databladeVALIDATION_Blade_20.csv|
|                                   |                     (21.8669 MB/s)|
|CSV file                           |surface_flowdatabladeVALIDATION_Blade_20.csv|
|                                   |                     (19.7346 MB/s)|
+-----------------------------------------------------------------------+
+--------------------------------------+
|  Inner_Iter|    Cur_Time|    rms[Rho]|
+--------------------------------------+
|        1560|  0.0000e+00|   -5.339684|
|        1570|  0.0000e+00|   -5.251246|
|        1580|  0.0000e+00|   -5.338390|
|        1590|  0.0000e+00|   -5.337377|
|        1600|  0.0000e+00|   -5.279582|
+-----------------------------------------------------------------------+
|        File Writing Summary       |              Filename             |
+-----------------------------------------------------------------------+
|SU2 binary restart                 |restart_flow_databladeVALIDATION_Blade_20.dat|
|                                   |                     (9630.08 MB/s)|
|Paraview                           |volume_flow_databladeVALIDATION_Blade_20.vtu|
|                                   |                     (837.513 MB/s)|
|Paraview surface                   |surface_flowdatabladeVALIDATION_Blade_20.vtu|
|                                   |                      (70.276 MB/s)|
|SU2 ASCII restart                  |restart_flow_databladeVALIDATION_Blade_20.csv|
|                                   |                     (21.6452 MB/s)|
|CSV file                           |surface_flowdatabladeVALIDATION_Blade_20.csv|
|                                   |                     (19.1187 MB/s)|
+-----------------------------------------------------------------------+
+--------------------------------------+
|  Inner_Iter|    Cur_Time|    rms[Rho]|
+--------------------------------------+
|        1610|  0.0000e+00|   -5.392673|
|        1620|  0.0000e+00|   -5.327471|
|        1630|  0.0000e+00|   -5.350698|
|        1640|  0.0000e+00|   -5.476303|
|        1650|  0.0000e+00|   -5.448405|
+-----------------------------------------------------------------------+
|        File Writing Summary       |              Filename             |
+-----------------------------------------------------------------------+
|SU2 binary restart                 |restart_flow_databladeVALIDATION_Blade_20.dat|
|                                   |                     (8621.49 MB/s)|
|Paraview                           |volume_flow_databladeVALIDATION_Blade_20.vtu|
|                                   |                     (859.894 MB/s)|
|Paraview surface                   |surface_flowdatabladeVALIDATION_Blade_20.vtu|
|                                   |                     (73.6142 MB/s)|
|SU2 ASCII restart                  |restart_flow_databladeVALIDATION_Blade_20.csv|
|                                   |                     (21.6318 MB/s)|
|CSV file                           |surface_flowdatabladeVALIDATION_Blade_20.csv|
|                                   |                     (21.6327 MB/s)|
+-----------------------------------------------------------------------+
+--------------------------------------+
|  Inner_Iter|    Cur_Time|    rms[Rho]|
+--------------------------------------+
|        1660|  0.0000e+00|   -5.507299|
|        1670|  0.0000e+00|   -5.503106|
|        1680|  0.0000e+00|   -5.439106|
|        1690|  0.0000e+00|   -5.485568|
|        1700|  0.0000e+00|   -5.542240|
+-----------------------------------------------------------------------+
|        File Writing Summary       |              Filename             |
+-----------------------------------------------------------------------+
|SU2 binary restart                 |restart_flow_databladeVALIDATION_Blade_20.dat|
|                                   |                     (8044.82 MB/s)|
|Paraview                           |volume_flow_databladeVALIDATION_Blade_20.vtu|
|                                   |                     (848.396 MB/s)|
|Paraview surface                   |surface_flowdatabladeVALIDATION_Blade_20.vtu|
|                                   |                      (72.493 MB/s)|
|SU2 ASCII restart                  |restart_flow_databladeVALIDATION_Blade_20.csv|
|                                   |                     (21.4757 MB/s)|
|CSV file                           |surface_flowdatabladeVALIDATION_Blade_20.csv|
|                                   |                     (18.4133 MB/s)|
+-----------------------------------------------------------------------+
+--------------------------------------+
|  Inner_Iter|    Cur_Time|    rms[Rho]|
+--------------------------------------+
|        1710|  0.0000e+00|   -5.553251|
|        1720|  0.0000e+00|   -5.525373|
|        1730|  0.0000e+00|   -5.602133|
|        1740|  0.0000e+00|   -5.613627|
|        1750|  0.0000e+00|   -5.592600|
+-----------------------------------------------------------------------+
|        File Writing Summary       |              Filename             |
+-----------------------------------------------------------------------+
|SU2 binary restart                 |restart_flow_databladeVALIDATION_Blade_20.dat|
|                                   |                     (9224.22 MB/s)|
|Paraview                           |volume_flow_databladeVALIDATION_Blade_20.vtu|
|                                   |                     (817.521 MB/s)|
|Paraview surface                   |surface_flowdatabladeVALIDATION_Blade_20.vtu|
|                                   |                     (71.1773 MB/s)|
|SU2 ASCII restart                  |restart_flow_databladeVALIDATION_Blade_20.csv|
|                                   |                     (21.8132 MB/s)|
|CSV file                           |surface_flowdatabladeVALIDATION_Blade_20.csv|
|                                   |                     (21.0879 MB/s)|
+-----------------------------------------------------------------------+
+--------------------------------------+
|  Inner_Iter|    Cur_Time|    rms[Rho]|
+--------------------------------------+
|        1760|  0.0000e+00|   -5.580256|
|        1770|  0.0000e+00|   -5.644325|
|        1780|  0.0000e+00|   -5.642427|
|        1790|  0.0000e+00|   -5.600887|
|        1800|  0.0000e+00|   -5.665918|
+-----------------------------------------------------------------------+
|        File Writing Summary       |              Filename             |
+-----------------------------------------------------------------------+
|SU2 binary restart                 |restart_flow_databladeVALIDATION_Blade_20.dat|
|                                   |                     (3818.22 MB/s)|
|Paraview                           |volume_flow_databladeVALIDATION_Blade_20.vtu|
|                                   |                     (805.722 MB/s)|
|Paraview surface                   |surface_flowdatabladeVALIDATION_Blade_20.vtu|
|                                   |                     (89.7985 MB/s)|
|SU2 ASCII restart                  |restart_flow_databladeVALIDATION_Blade_20.csv|
|                                   |                     (21.6079 MB/s)|
|CSV file                           |surface_flowdatabladeVALIDATION_Blade_20.csv|
|                                   |                     (19.7705 MB/s)|
+-----------------------------------------------------------------------+
+--------------------------------------+
|  Inner_Iter|    Cur_Time|    rms[Rho]|
+--------------------------------------+
|        1810|  0.0000e+00|   -5.662717|
|        1820|  0.0000e+00|   -5.650275|
|        1830|  0.0000e+00|   -5.717397|
|        1840|  0.0000e+00|   -5.738368|
|        1850|  0.0000e+00|   -5.699737|
+-----------------------------------------------------------------------+
|        File Writing Summary       |              Filename             |
+-----------------------------------------------------------------------+
|SU2 binary restart                 |restart_flow_databladeVALIDATION_Blade_20.dat|
|                                   |                     (8991.64 MB/s)|
|Paraview                           |volume_flow_databladeVALIDATION_Blade_20.vtu|
|                                   |                     (818.144 MB/s)|
|Paraview surface                   |surface_flowdatabladeVALIDATION_Blade_20.vtu|
|                                   |                     (71.7055 MB/s)|
|SU2 ASCII restart                  |restart_flow_databladeVALIDATION_Blade_20.csv|
|                                   |                     (21.4886 MB/s)|
|CSV file                           |surface_flowdatabladeVALIDATION_Blade_20.csv|
|                                   |                     (19.6477 MB/s)|
+-----------------------------------------------------------------------+
+--------------------------------------+
|  Inner_Iter|    Cur_Time|    rms[Rho]|
+--------------------------------------+
|        1860|  0.0000e+00|   -5.730924|
|        1870|  0.0000e+00|   -5.747340|
|        1880|  0.0000e+00|   -5.763437|
|        1890|  0.0000e+00|   -5.786400|
|        1900|  0.0000e+00|   -5.816379|
+-----------------------------------------------------------------------+
|        File Writing Summary       |              Filename             |
+-----------------------------------------------------------------------+
|SU2 binary restart                 |restart_flow_databladeVALIDATION_Blade_20.dat|
|                                   |                     (8962.41 MB/s)|
|Paraview                           |volume_flow_databladeVALIDATION_Blade_20.vtu|
|                                   |                     (806.113 MB/s)|
|Paraview surface                   |surface_flowdatabladeVALIDATION_Blade_20.vtu|
|                                   |                     (73.3516 MB/s)|
|SU2 ASCII restart                  |restart_flow_databladeVALIDATION_Blade_20.csv|
|                                   |                     (21.3746 MB/s)|
|CSV file                           |surface_flowdatabladeVALIDATION_Blade_20.csv|
|                                   |                     (20.4319 MB/s)|
+-----------------------------------------------------------------------+
+--------------------------------------+
|  Inner_Iter|    Cur_Time|    rms[Rho]|
+--------------------------------------+
|        1910|  0.0000e+00|   -5.836841|
|        1920|  0.0000e+00|   -5.855215|
|        1930|  0.0000e+00|   -5.887184|
|        1940|  0.0000e+00|   -5.918578|
|        1950|  0.0000e+00|   -5.934485|
+-----------------------------------------------------------------------+
|        File Writing Summary       |              Filename             |
+-----------------------------------------------------------------------+
|SU2 binary restart                 |restart_flow_databladeVALIDATION_Blade_20.dat|
|                                   |                     (8934.14 MB/s)|
|Paraview                           |volume_flow_databladeVALIDATION_Blade_20.vtu|
|                                   |                     (817.559 MB/s)|
|Paraview surface                   |surface_flowdatabladeVALIDATION_Blade_20.vtu|
|                                   |                     (71.1773 MB/s)|
|SU2 ASCII restart                  |restart_flow_databladeVALIDATION_Blade_20.csv|
|                                   |                     (20.9236 MB/s)|
|CSV file                           |surface_flowdatabladeVALIDATION_Blade_20.csv|
|                                   |                     (18.9062 MB/s)|
+-----------------------------------------------------------------------+
+--------------------------------------+
|  Inner_Iter|    Cur_Time|    rms[Rho]|
+--------------------------------------+
|        1960|  0.0000e+00|   -5.966087|
|        1970|  0.0000e+00|   -6.019845|
|        1980|  0.0000e+00|   -6.084926|
|        1990|  0.0000e+00|   -6.095490|
|        2000|  0.0000e+00|   -6.069522|
+-----------------------------------------------------------------------+
|        File Writing Summary       |              Filename             |
+-----------------------------------------------------------------------+
|SU2 binary restart                 |restart_flow_databladeVALIDATION_Blade_20.dat|
|                                   |                      (9109.7 MB/s)|
|Paraview                           |volume_flow_databladeVALIDATION_Blade_20.vtu|
|                                   |                     (809.294 MB/s)|
|Paraview surface                   |surface_flowdatabladeVALIDATION_Blade_20.vtu|
|                                   |                     (75.3927 MB/s)|
|SU2 ASCII restart                  |restart_flow_databladeVALIDATION_Blade_20.csv|
|                                   |                     (21.8312 MB/s)|
|CSV file                           |surface_flowdatabladeVALIDATION_Blade_20.csv|
|                                   |                     (19.5377 MB/s)|
+-----------------------------------------------------------------------+
+--------------------------------------+
|  Inner_Iter|    Cur_Time|    rms[Rho]|
+--------------------------------------+
|        2010|  0.0000e+00|   -6.121224|
|        2020|  0.0000e+00|   -6.108296|
|        2030|  0.0000e+00|   -6.075494|
|        2040|  0.0000e+00|   -6.121773|
|        2050|  0.0000e+00|   -6.106145|
+-----------------------------------------------------------------------+
|        File Writing Summary       |              Filename             |
+-----------------------------------------------------------------------+
|SU2 binary restart                 |restart_flow_databladeVALIDATION_Blade_20.dat|
|                                   |                     (9173.61 MB/s)|
|Paraview                           |volume_flow_databladeVALIDATION_Blade_20.vtu|
|                                   |                      (789.86 MB/s)|
|Paraview surface                   |surface_flowdatabladeVALIDATION_Blade_20.vtu|
|                                   |                     (70.8159 MB/s)|
|SU2 ASCII restart                  |restart_flow_databladeVALIDATION_Blade_20.csv|
|                                   |                     (21.9719 MB/s)|
|CSV file                           |surface_flowdatabladeVALIDATION_Blade_20.csv|
|                                   |                     (21.3281 MB/s)|
+-----------------------------------------------------------------------+
+--------------------------------------+
|  Inner_Iter|    Cur_Time|    rms[Rho]|
+--------------------------------------+
|        2060|  0.0000e+00|   -6.122783|
|        2070|  0.0000e+00|   -6.172156|
|        2080|  0.0000e+00|   -6.179326|
|        2090|  0.0000e+00|   -6.165654|
|        2100|  0.0000e+00|   -6.207225|
+-----------------------------------------------------------------------+
|        File Writing Summary       |              Filename             |
+-----------------------------------------------------------------------+
|SU2 binary restart                 |restart_flow_databladeVALIDATION_Blade_20.dat|
|                                   |                     (9666.59 MB/s)|
|Paraview                           |volume_flow_databladeVALIDATION_Blade_20.vtu|
|                                   |                     (816.353 MB/s)|
|Paraview surface                   |surface_flowdatabladeVALIDATION_Blade_20.vtu|
|                                   |                     (72.5783 MB/s)|
|SU2 ASCII restart                  |restart_flow_databladeVALIDATION_Blade_20.csv|
|                                   |                     (21.5436 MB/s)|
|CSV file                           |surface_flowdatabladeVALIDATION_Blade_20.csv|
|                                   |                     (19.8567 MB/s)|
+-----------------------------------------------------------------------+
+--------------------------------------+
|  Inner_Iter|    Cur_Time|    rms[Rho]|
+--------------------------------------+
|        2110|  0.0000e+00|   -6.197824|
|        2120|  0.0000e+00|   -6.232264|
|        2130|  0.0000e+00|   -6.212752|
|        2140|  0.0000e+00|   -6.228521|
|        2150|  0.0000e+00|   -6.255392|
+-----------------------------------------------------------------------+
|        File Writing Summary       |              Filename             |
+-----------------------------------------------------------------------+
|SU2 binary restart                 |restart_flow_databladeVALIDATION_Blade_20.dat|
|                                   |                      (9273.7 MB/s)|
|Paraview                           |volume_flow_databladeVALIDATION_Blade_20.vtu|
|                                   |                     (807.663 MB/s)|
|Paraview surface                   |surface_flowdatabladeVALIDATION_Blade_20.vtu|
|                                   |                     (73.0842 MB/s)|
|SU2 ASCII restart                  |restart_flow_databladeVALIDATION_Blade_20.csv|
|                                   |                     (22.1035 MB/s)|
|CSV file                           |surface_flowdatabladeVALIDATION_Blade_20.csv|
|                                   |                     (20.9537 MB/s)|
+-----------------------------------------------------------------------+
+--------------------------------------+
|  Inner_Iter|    Cur_Time|    rms[Rho]|
+--------------------------------------+
|        2160|  0.0000e+00|   -6.252210|
|        2170|  0.0000e+00|   -6.241190|
|        2180|  0.0000e+00|   -6.274123|
|        2190|  0.0000e+00|   -6.295892|
|        2200|  0.0000e+00|   -6.270391|
+-----------------------------------------------------------------------+
|        File Writing Summary       |              Filename             |
+-----------------------------------------------------------------------+
|SU2 binary restart                 |restart_flow_databladeVALIDATION_Blade_20.dat|
|                                   |                     (9322.87 MB/s)|
|Paraview                           |volume_flow_databladeVALIDATION_Blade_20.vtu|
|                                   |                     (846.717 MB/s)|
|Paraview surface                   |surface_flowdatabladeVALIDATION_Blade_20.vtu|
|                                   |                       (71.25 MB/s)|
|SU2 ASCII restart                  |restart_flow_databladeVALIDATION_Blade_20.csv|
|                                   |                     (21.9975 MB/s)|
|CSV file                           |surface_flowdatabladeVALIDATION_Blade_20.csv|
|                                   |                     (20.0285 MB/s)|
+-----------------------------------------------------------------------+
+--------------------------------------+
|  Inner_Iter|    Cur_Time|    rms[Rho]|
+--------------------------------------+
|        2210|  0.0000e+00|   -6.299326|
|        2220|  0.0000e+00|   -6.316551|
|        2230|  0.0000e+00|   -6.314236|
|        2240|  0.0000e+00|   -6.296156|
|        2250|  0.0000e+00|   -6.316058|
+-----------------------------------------------------------------------+
|        File Writing Summary       |              Filename             |
+-----------------------------------------------------------------------+
|SU2 binary restart                 |restart_flow_databladeVALIDATION_Blade_20.dat|
|                                   |                     (8895.19 MB/s)|
|Paraview                           |volume_flow_databladeVALIDATION_Blade_20.vtu|
|                                   |                     (824.676 MB/s)|
|Paraview surface                   |surface_flowdatabladeVALIDATION_Blade_20.vtu|
|                                   |                     (73.7055 MB/s)|
|SU2 ASCII restart                  |restart_flow_databladeVALIDATION_Blade_20.csv|
|                                   |                     (21.3091 MB/s)|
|CSV file                           |surface_flowdatabladeVALIDATION_Blade_20.csv|
|                                   |                     (19.3227 MB/s)|
+-----------------------------------------------------------------------+
+--------------------------------------+
|  Inner_Iter|    Cur_Time|    rms[Rho]|
+--------------------------------------+
|        2260|  0.0000e+00|   -6.320369|
|        2270|  0.0000e+00|   -6.378409|
|        2280|  0.0000e+00|   -6.385751|
|        2290|  0.0000e+00|   -6.364146|
|        2300|  0.0000e+00|   -6.404673|
+-----------------------------------------------------------------------+
|        File Writing Summary       |              Filename             |
+-----------------------------------------------------------------------+
|SU2 binary restart                 |restart_flow_databladeVALIDATION_Blade_20.dat|
|                                   |                     (9453.35 MB/s)|
|Paraview                           |volume_flow_databladeVALIDATION_Blade_20.vtu|
|                                   |                     (794.277 MB/s)|
|Paraview surface                   |surface_flowdatabladeVALIDATION_Blade_20.vtu|
|                                   |                     (71.7825 MB/s)|
|SU2 ASCII restart                  |restart_flow_databladeVALIDATION_Blade_20.csv|
|                                   |                     (21.4894 MB/s)|
|CSV file                           |surface_flowdatabladeVALIDATION_Blade_20.csv|
|                                   |                     (20.2688 MB/s)|
+-----------------------------------------------------------------------+
+--------------------------------------+
|  Inner_Iter|    Cur_Time|    rms[Rho]|
+--------------------------------------+
|        2310|  0.0000e+00|   -6.428813|
|        2320|  0.0000e+00|   -6.417156|
|        2330|  0.0000e+00|   -6.380136|
|        2340|  0.0000e+00|   -6.440144|
|        2350|  0.0000e+00|   -6.449790|
+-----------------------------------------------------------------------+
|        File Writing Summary       |              Filename             |
+-----------------------------------------------------------------------+
|SU2 binary restart                 |restart_flow_databladeVALIDATION_Blade_20.dat|
|                                   |                     (9199.26 MB/s)|
|Paraview                           |volume_flow_databladeVALIDATION_Blade_20.vtu|
[...]
|        File Writing Summary       |              Filename             |
+-----------------------------------------------------------------------+
|SU2 binary restart                 |restart_flow_databladeVALIDATION_Blade_20.dat|
|                                   |                     (9017.88 MB/s)|
|Paraview                           |volume_flow_databladeVALIDATION_Blade_20.vtu|
|                                   |                     (733.779 MB/s)|
|Paraview surface                   |surface_flowdatabladeVALIDATION_Blade_20.vtu|
|                                   |                     (67.7814 MB/s)|
|SU2 ASCII restart                  |restart_flow_databladeVALIDATION_Blade_20.csv|
|                                   |                     (20.9744 MB/s)|
|CSV file                           |surface_flowdatabladeVALIDATION_Blade_20.csv|
|                                   |                     (19.0897 MB/s)|
+-----------------------------------------------------------------------+
+--------------------------------------+
|  Inner_Iter|    Cur_Time|    rms[Rho]|
+--------------------------------------+
|        3760|  0.0000e+00|   -6.923010|
|        3770|  0.0000e+00|   -6.925567|
|        3780|  0.0000e+00|   -6.929750|
|        3790|  0.0000e+00|   -6.936436|
|        3800|  0.0000e+00|   -6.938768|
+-----------------------------------------------------------------------+
|        File Writing Summary       |              Filename             |
+-----------------------------------------------------------------------+
|SU2 binary restart                 |restart_flow_databladeVALIDATION_Blade_20.dat|
|                                   |                     (9315.21 MB/s)|
|Paraview                           |volume_flow_databladeVALIDATION_Blade_20.vtu|
|                                   |                     (867.328 MB/s)|
|Paraview surface                   |surface_flowdatabladeVALIDATION_Blade_20.vtu|
|                                   |                     (63.9214 MB/s)|
|SU2 ASCII restart                  |restart_flow_databladeVALIDATION_Blade_20.csv|
|                                   |                      (21.906 MB/s)|
|CSV file                           |surface_flowdatabladeVALIDATION_Blade_20.csv|
|                                   |                     (19.9614 MB/s)|
+-----------------------------------------------------------------------+
+--------------------------------------+
|  Inner_Iter|    Cur_Time|    rms[Rho]|
+--------------------------------------+
|        3810|  0.0000e+00|   -6.937087|
|        3820|  0.0000e+00|   -6.939731|
|        3830|  0.0000e+00|   -6.941983|
|        3840|  0.0000e+00|   -6.941872|
|        3850|  0.0000e+00|   -6.940685|
+-----------------------------------------------------------------------+
|        File Writing Summary       |              Filename             |
+-----------------------------------------------------------------------+
|SU2 binary restart                 |restart_flow_databladeVALIDATION_Blade_20.dat|
|                                   |                     (8961.62 MB/s)|
|Paraview                           |volume_flow_databladeVALIDATION_Blade_20.vtu|
|                                   |                     (798.854 MB/s)|
|Paraview surface                   |surface_flowdatabladeVALIDATION_Blade_20.vtu|
|                                   |                     (72.7033 MB/s)|
|SU2 ASCII restart                  |restart_flow_databladeVALIDATION_Blade_20.csv|
|                                   |                     (21.3765 MB/s)|
|CSV file                           |surface_flowdatabladeVALIDATION_Blade_20.csv|
|                                   |                     (19.1237 MB/s)|
+-----------------------------------------------------------------------+
+--------------------------------------+
|  Inner_Iter|    Cur_Time|    rms[Rho]|
+--------------------------------------+
|        3860|  0.0000e+00|   -6.938636|
|        3870|  0.0000e+00|   -6.939676|
|        3880|  0.0000e+00|   -6.945384|
|        3890|  0.0000e+00|   -6.948501|
|        3900|  0.0000e+00|   -6.951877|
+-----------------------------------------------------------------------+
|        File Writing Summary       |              Filename             |
+-----------------------------------------------------------------------+
|SU2 binary restart                 |restart_flow_databladeVALIDATION_Blade_20.dat|
|                                   |                     (8808.38 MB/s)|
|Paraview                           |volume_flow_databladeVALIDATION_Blade_20.vtu|
|                                   |                     (840.937 MB/s)|
|Paraview surface                   |surface_flowdatabladeVALIDATION_Blade_20.vtu|
|                                   |                     (61.9704 MB/s)|
|SU2 ASCII restart                  |restart_flow_databladeVALIDATION_Blade_20.csv|
|                                   |                     (21.1453 MB/s)|
|CSV file                           |surface_flowdatabladeVALIDATION_Blade_20.csv|
|                                   |                     (19.4958 MB/s)|
+-----------------------------------------------------------------------+
+--------------------------------------+
|  Inner_Iter|    Cur_Time|    rms[Rho]|
+--------------------------------------+
|        3910|  0.0000e+00|   -6.953565|
|        3920|  0.0000e+00|   -6.951277|
|        3930|  0.0000e+00|   -6.949764|
|        3940|  0.0000e+00|   -6.957959|
|        3950|  0.0000e+00|   -6.958358|
+-----------------------------------------------------------------------+
|        File Writing Summary       |              Filename             |
+-----------------------------------------------------------------------+
|SU2 binary restart                 |restart_flow_databladeVALIDATION_Blade_20.dat|
|                                   |                     (6206.55 MB/s)|
|Paraview                           |volume_flow_databladeVALIDATION_Blade_20.vtu|
|                                   |                     (781.827 MB/s)|
|Paraview surface                   |surface_flowdatabladeVALIDATION_Blade_20.vtu|
|                                   |                     (68.3825 MB/s)|
|SU2 ASCII restart                  |restart_flow_databladeVALIDATION_Blade_20.csv|
|                                   |                     (21.7267 MB/s)|
|CSV file                           |surface_flowdatabladeVALIDATION_Blade_20.csv|
|                                   |                      (19.376 MB/s)|
+-----------------------------------------------------------------------+
+--------------------------------------+
|  Inner_Iter|    Cur_Time|    rms[Rho]|
+--------------------------------------+
|        3960|  0.0000e+00|   -6.956928|
|        3970|  0.0000e+00|   -6.960587|
|        3980|  0.0000e+00|   -6.961671|
|        3990|  0.0000e+00|   -6.961165|
|        4000|  0.0000e+00|   -6.961916|
+-----------------------------------------------------------------------+
|        File Writing Summary       |              Filename             |
+-----------------------------------------------------------------------+
|SU2 binary restart                 |restart_flow_databladeVALIDATION_Blade_20.dat|
|                                   |                     (9322.02 MB/s)|
|Paraview                           |volume_flow_databladeVALIDATION_Blade_20.vtu|
|                                   |                     (792.697 MB/s)|
|Paraview surface                   |surface_flowdatabladeVALIDATION_Blade_20.vtu|
|                                   |                     (68.6224 MB/s)|
|SU2 ASCII restart                  |restart_flow_databladeVALIDATION_Blade_20.csv|
|                                   |                     (21.2945 MB/s)|
|CSV file                           |surface_flowdatabladeVALIDATION_Blade_20.csv|
|                                   |                     (20.6568 MB/s)|
+-----------------------------------------------------------------------+
+--------------------------------------+
|  Inner_Iter|    Cur_Time|    rms[Rho]|
+--------------------------------------+
|        4010|  0.0000e+00|   -6.964043|
|        4020|  0.0000e+00|   -6.964472|
|        4030|  0.0000e+00|   -6.964871|
|        4040|  0.0000e+00|   -6.965719|
|        4050|  0.0000e+00|   -6.967487|
+-----------------------------------------------------------------------+
|        File Writing Summary       |              Filename             |
+-----------------------------------------------------------------------+
|SU2 binary restart                 |restart_flow_databladeVALIDATION_Blade_20.dat|
|                                   |                        (9186 MB/s)|
|Paraview                           |volume_flow_databladeVALIDATION_Blade_20.vtu|
|                                   |                     (772.327 MB/s)|
|Paraview surface                   |surface_flowdatabladeVALIDATION_Blade_20.vtu|
|                                   |                     (72.8221 MB/s)|
|SU2 ASCII restart                  |restart_flow_databladeVALIDATION_Blade_20.csv|
|                                   |                     (21.6872 MB/s)|
|CSV file                           |surface_flowdatabladeVALIDATION_Blade_20.csv|
|                                   |                     (19.1702 MB/s)|
+-----------------------------------------------------------------------+
+--------------------------------------+
|  Inner_Iter|    Cur_Time|    rms[Rho]|
+--------------------------------------+
|        4060|  0.0000e+00|   -6.968457|
|        4070|  0.0000e+00|   -6.972495|
|        4080|  0.0000e+00|   -6.974715|
|        4090|  0.0000e+00|   -6.975161|
|        4100|  0.0000e+00|   -6.976711|
+-----------------------------------------------------------------------+
|        File Writing Summary       |              Filename             |
+-----------------------------------------------------------------------+
|SU2 binary restart                 |restart_flow_databladeVALIDATION_Blade_20.dat|
|                                   |                     (8809.14 MB/s)|
|Paraview                           |volume_flow_databladeVALIDATION_Blade_20.vtu|
|                                   |                     (826.984 MB/s)|
|Paraview surface                   |surface_flowdatabladeVALIDATION_Blade_20.vtu|
|                                   |                     (57.4862 MB/s)|
|SU2 ASCII restart                  |restart_flow_databladeVALIDATION_Blade_20.csv|
|                                   |                     (20.9219 MB/s)|
|CSV file                           |surface_flowdatabladeVALIDATION_Blade_20.csv|
|                                   |                     (18.6082 MB/s)|
+-----------------------------------------------------------------------+
+--------------------------------------+
|  Inner_Iter|    Cur_Time|    rms[Rho]|
+--------------------------------------+
|        4110|  0.0000e+00|   -6.980072|
|        4120|  0.0000e+00|   -6.981137|
|        4130|  0.0000e+00|   -6.980754|
|        4140|  0.0000e+00|   -6.984240|
|        4150|  0.0000e+00|   -6.986328|
+-----------------------------------------------------------------------+
|        File Writing Summary       |              Filename             |
+-----------------------------------------------------------------------+
|SU2 binary restart                 |restart_flow_databladeVALIDATION_Blade_20.dat|
|                                   |                     (9323.72 MB/s)|
|Paraview                           |volume_flow_databladeVALIDATION_Blade_20.vtu|
|                                   |                     (695.403 MB/s)|
|Paraview surface                   |surface_flowdatabladeVALIDATION_Blade_20.vtu|
|                                   |                     (74.2343 MB/s)|
|SU2 ASCII restart                  |restart_flow_databladeVALIDATION_Blade_20.csv|
|                                   |                     (21.5671 MB/s)|
|CSV file                           |surface_flowdatabladeVALIDATION_Blade_20.csv|
|                                   |                     (20.5083 MB/s)|
+-----------------------------------------------------------------------+
+--------------------------------------+
|  Inner_Iter|    Cur_Time|    rms[Rho]|
+--------------------------------------+
|        4160|  0.0000e+00|   -6.985604|
|        4170|  0.0000e+00|   -6.986053|
|        4180|  0.0000e+00|   -6.987269|
|        4190|  0.0000e+00|   -6.989627|
|        4200|  0.0000e+00|   -6.987317|
+-----------------------------------------------------------------------+
|        File Writing Summary       |              Filename             |
+-----------------------------------------------------------------------+
|SU2 binary restart                 |restart_flow_databladeVALIDATION_Blade_20.dat|
|                                   |                     (9078.89 MB/s)|
|Paraview                           |volume_flow_databladeVALIDATION_Blade_20.vtu|
|                                   |                      (850.32 MB/s)|
|Paraview surface                   |surface_flowdatabladeVALIDATION_Blade_20.vtu|
|                                   |                     (92.4644 MB/s)|
|SU2 ASCII restart                  |restart_flow_databladeVALIDATION_Blade_20.csv|
|                                   |                     (20.7317 MB/s)|
|CSV file                           |surface_flowdatabladeVALIDATION_Blade_20.csv|
|                                   |                     (18.7297 MB/s)|
+-----------------------------------------------------------------------+
+--------------------------------------+
|  Inner_Iter|    Cur_Time|    rms[Rho]|
+--------------------------------------+
|        4210|  0.0000e+00|   -6.990007|
|        4220|  0.0000e+00|   -6.991775|
|        4230|  0.0000e+00|   -6.991381|
|        4240|  0.0000e+00|   -6.990994|
|        4250|  0.0000e+00|   -6.993904|
+-----------------------------------------------------------------------+
|        File Writing Summary       |              Filename             |
+-----------------------------------------------------------------------+
|SU2 binary restart                 |restart_flow_databladeVALIDATION_Blade_20.dat|
|                                   |                      (9013.1 MB/s)|
|Paraview                           |volume_flow_databladeVALIDATION_Blade_20.vtu|
|                                   |                     (786.137 MB/s)|
|Paraview surface                   |surface_flowdatabladeVALIDATION_Blade_20.vtu|
|                                   |                     (74.2583 MB/s)|
|SU2 ASCII restart                  |restart_flow_databladeVALIDATION_Blade_20.csv|
|                                   |                     (21.6342 MB/s)|
|CSV file                           |surface_flowdatabladeVALIDATION_Blade_20.csv|
|                                   |                     (20.2362 MB/s)|
+-----------------------------------------------------------------------+
+--------------------------------------+
|  Inner_Iter|    Cur_Time|    rms[Rho]|
+--------------------------------------+
|        4260|  0.0000e+00|   -6.994988|
|        4270|  0.0000e+00|   -6.994448|
|        4280|  0.0000e+00|   -6.998334|
|        4290|  0.0000e+00|   -6.998493|
|        4300|  0.0000e+00|   -6.999110|
+-----------------------------------------------------------------------+
|        File Writing Summary       |              Filename             |
+-----------------------------------------------------------------------+
|SU2 binary restart                 |restart_flow_databladeVALIDATION_Blade_20.dat|
|                                   |                     (9543.58 MB/s)|
|Paraview                           |volume_flow_databladeVALIDATION_Blade_20.vtu|
|                                   |                     (826.327 MB/s)|
|Paraview surface                   |surface_flowdatabladeVALIDATION_Blade_20.vtu|
|                                   |                     (59.2552 MB/s)|
|SU2 ASCII restart                  |restart_flow_databladeVALIDATION_Blade_20.csv|
|                                   |                      (21.893 MB/s)|
|CSV file                           |surface_flowdatabladeVALIDATION_Blade_20.csv|
|                                   |                     (18.6022 MB/s)|
+-----------------------------------------------------------------------+
+--------------------------------------+
|  Inner_Iter|    Cur_Time|    rms[Rho]|
+--------------------------------------+
|        4310|  0.0000e+00|   -6.999830|
|        4312|  0.0000e+00|   -7.000084|

----------------------------- Solver Exit -------------------------------
All convergence criteria satisfied.
+-----------------------------------------------------------------------+
|      Convergence Field     |     Value    |   Criterion  |  Converged |
+-----------------------------------------------------------------------+
|                    rms[Rho]|      -7.00008|          < -7|         Yes|
+-----------------------------------------------------------------------+
-------------------------------------------------------------------------
+-----------------------------------------------------------------------+
|        File Writing Summary       |              Filename             |
+-----------------------------------------------------------------------+
|SU2 binary restart                 |restart_flow_databladeVALIDATION_Blade_20.dat|
|                                   |                     (9294.83 MB/s)|
|Paraview                           |volume_flow_databladeVALIDATION_Blade_20.vtu|
|                                   |                     (830.372 MB/s)|
|Paraview surface                   |surface_flowdatabladeVALIDATION_Blade_20.vtu|
|                                   |                     (77.2221 MB/s)|
|SU2 ASCII restart                  |restart_flow_databladeVALIDATION_Blade_20.csv|
|                                   |                     (22.0963 MB/s)|
|CSV file                           |surface_flowdatabladeVALIDATION_Blade_20.csv|
|                                   |                     (20.7858 MB/s)|
+-----------------------------------------------------------------------+

--------------------------- Finalizing Solver ---------------------------
Deleted CNumerics container.
Deleted CIntegration container.
Deleted CSolver container.
Deleted CIteration container.
Deleted CInterface container.
Deleted CGeometry container.
Deleted CFreeFormDefBox class.
Deleted CSurfaceMovement class.
Deleted CVolumetricMovement class.
Deleted CConfig container.
Deleted nInst container.
Deleted COutput class.
-------------------------------------------------------------------------


-------------------------- Performance Summary --------------------------
Simulation totals:
   Wall-clock time (hrs):   0.0801089 |            Core-hrs:    0.961307
                   Cores:          12 |          DOFs/point:           5
             Points/core:     3215.25 |   Ghost points/core:         130
 Ghost/Owned Point Ratio:   0.0404323 | 

Preprocessing phase:
       Preproc. Time (s):    0.274141 |   Preproc. Time (%):   0.0950585

Compute phase:
        Compute Time (s):      286.71 |    Compute Time (%):     99.4166
         Iteration count:        4313 |         Avg. s/iter:   0.0664757
     Core-s/iter/Mpoints:     19.8717 |           Mpoints/s:    0.603875

Output phase:
         Output Time (s):     1.40836 |     Output Time (%):    0.488348
            Output count:           1 |       Avg. s/output:     1.40836
 Restart Aggr. BW (MB/s):      766661 |           MB/s/core:     63888.4
-------------------------------------------------------------------------


------------------------- Exit Success (SU2_CFD) ------------------------

