
-------------------------------------------------------------------------
|    ___ _   _ ___                                                      |
|   / __| | | |_  )   Release 8.0.1 "Harrier"                           |
|   \__ \ |_| |/ /                                                      |
|   |___/\___//___|   Suite (Computational Fluid Dynamics Code)         |
|                                                                       |
-------------------------------------------------------------------------
| SU2 Project Website: https://su2code.github.io                        |
|                                                                       |
| The SU2 Project is maintained by the SU2 Foundation                   |
| (http://su2foundation.org)                                            |
-------------------------------------------------------------------------
| Copyright 2012-2024, SU2 Contributors                                 |
|                                                                       |
| SU2 is free software; you can redistribute it and/or                  |
| modify it under the terms of the GNU Lesser General Public            |
| License as published by the Free Software Foundation; either          |
| version 2.1 of the License, or (at your option) any later version.    |
|                                                                       |
| SU2 is distributed in the hope that it will be useful,                |
| but WITHOUT ANY WARRANTY; without even the implied warranty of        |
| MERCHANTABILITY or FITNESS FOR A PARTICULAR PURPOSE. See the GNU      |
| Lesser General Public License for more details.                       |
|                                                                       |
| You should have received a copy of the GNU Lesser General Public      |
| License along with SU2. If not, see <http://www.gnu.org/licenses/>.   |
-------------------------------------------------------------------------

Parsing config file for zone 0

----------------- Physical Case Definition ( Zone 0 ) -------------------
Compressible RANS equations.
Turbulence model: Spalart-Allmaras-noft2-BCM
Hybrid RANS/LES: No Hybrid RANS/LES
Mach number: 0.5.
Angle of attack (AoA): -8 deg, and angle of sideslip (AoS): 0 deg.
Reynolds number: 600000. Reference length 1.00072.
No restart solution, use the values at infinity (freestream).
Dimensional simulation.
The reference area will be computed using y(2D) or z(3D) projection.
The semi-span will be computed using the max y(3D) value.
The reference length is 1.00072 m.
Reference origin for moment evaluation is (0, 0, 0).
Surface(s) where the force coefficients are evaluated: blade1.

Surface(s) plotted in the output file: blade1.
Surface(s) to be analyzed in detail: inlet, outlet, blade1.
Input mesh file name: cascade2D_databladeVALIDATION_Blade_17.su2

--------------- Space Numerical Integration ( Zone 0 ) ------------------
Jameson-Schmidt-Turkel scheme (2nd order in space) for the flow inviscid terms.
JST viscous coefficients (2nd & 4th): 0.5, 0.02.
The method includes a grid stretching correction (p = 0.3).
Scalar upwind solver for the turbulence model.
First order integration in space.
Average of gradients with correction (viscous flow terms).
Average of gradients with correction (viscous turbulence terms).
Gradient for upwind reconstruction: inverse-distance weighted Least-Squares.
Gradient for viscous and source terms: inverse-distance weighted Least-Squares.

--------------- Time Numerical Integration  ( Zone 0 ) ------------------
Local time stepping (steady state simulation).
Euler implicit method for the flow equations.
FGMRES is used for solving the linear system.
Using a LU-SGS preconditioning.
Convergence criteria of the linear solver: 0.0001.
Max number of linear iterations: 10.
V Multigrid Cycle, with 3 multigrid levels.
Damping factor for the residual restriction: 0.75.
Damping factor for the correction prolongation: 0.75.
CFL adaptation. Factor down: 0.1, factor up: 1.2,
                lower limit: 0.1, upper limit: 100,
                acceptable linear residual: 0.001.
+-------------------------------------------+
|  MG Level| Presmooth|PostSmooth|CorrectSmo|
+-------------------------------------------+
|         0|         1|         0|         1|
|         1|         2|         2|         2|
|         2|         3|         3|         3|
|         3|         3|         0|         0|
+-------------------------------------------+
Courant-Friedrichs-Lewy number:       12
Euler implicit time integration for the turbulence model.

------------------ Convergence Criteria  ( Zone 0 ) ---------------------
Maximum number of solver subiterations: 7000.
Begin convergence monitoring at iteration 500.
Residual minimum value: 1e-7.
Cauchy series min. value: 1e-10.
Number of Cauchy elements: 100.
Begin windowed time average at iteration 0.

-------------------- Output Information ( Zone 0 ) ----------------------
File writing frequency: 
+------------------------------------+
|                     File| Frequency|
+------------------------------------+
|                  RESTART|        50|
|                 PARAVIEW|        50|
|         SURFACE_PARAVIEW|        50|
|                      CSV|        50|
|              SURFACE_CSV|        50|
+------------------------------------+
Writing the convergence history file every 1 inner iterations.
Writing the screen convergence history every 10 inner iterations.
The tabular file format is CSV (.csv).
Convergence history file name: history_databladeVALIDATION_Blade_17.
Forces breakdown file name: forces_breakdown.dat.
Surface file name: surface_flowdatabladeVALIDATION_Blade_17.
Volume file name: volume_flow_databladeVALIDATION_Blade_17.
Restart file name: restart_flow_databladeVALIDATION_Blade_17.dat.

------------- Config File Boundary Information ( Zone 0 ) ---------------
+-----------------------------------------------------------------------+
|                        Marker Type|                        Marker Name|
+-----------------------------------------------------------------------+
|                  Periodic boundary|               symmetricWallsBOTTOM|
|                                   |                  symmetricWallsTOP|
+-----------------------------------------------------------------------+
|                     Inlet boundary|                              inlet|
+-----------------------------------------------------------------------+
|                    Outlet boundary|                             outlet|
+-----------------------------------------------------------------------+
|                     Heat flux wall|                             blade1|
|                                   |                             blade2|
+-----------------------------------------------------------------------+

-------------------- Output Preprocessing ( Zone 0 ) --------------------
  Info: Ignoring the following screen output fields:
  LINSOL_ITER_TRANS, LINSOL_RESIDUAL_TRANS
Screen output fields: INNER_ITER, CUR_TIME, RMS_DENSITY
  Info: Ignoring the following history output groups:
  RMS_TKE, RMS_DISSIPATION
History output group(s): INNER_ITER, WALL_TIME, RMS_DENSITY, RMS_MOMENTUM-X, RMS_ENERGY, LINSOL, CFL_NUMBER, FLOW_COEFF_SURF, AERO_COEFF_SURF
Convergence field(s): RMS_DENSITY
Warning: No (valid) fields chosen for time convergence monitoring. Time convergence monitoring inactive.
Volume output fields: COORDINATES, SOLUTION, PRIMITIVE, RESIDUAL, TIMESTEP, MESH_QUALITY, VORTEX_IDENTIFICATION

------------------- Geometry Preprocessing ( Zone 0 ) -------------------
Two dimensional problem.
22377 grid points before partitioning.
36802 volume elements before partitioning.
5 surface markers.
31 boundary elements in index 0 (Marker = inlet).
470 boundary elements in index 1 (Marker = symmetricWallsBOTTOM).
470 boundary elements in index 2 (Marker = symmetricWallsTOP).
31 boundary elements in index 3 (Marker = outlet).
278 boundary elements in index 4 (Marker = blade1).
Executing the partitioning functions.
Building the graph adjacency structure.
Calling ParMETIS... graph partitioning complete (852 edge cuts).
Distributing ParMETIS coloring.
Rebalancing vertices.
Rebalancing volume element connectivity.
Rebalancing markers and surface elements.
23477 vertices including ghost points. 
37645 interior elements including halo cells. 
30740 triangles.
6905 quadrilaterals.
Establishing MPI communication patterns.
Setting point connectivity.
Renumbering points (Reverse Cuthill McKee Ordering).
Recomputing point connectivity.
Setting element connectivity.
Checking the numerical grid orientation.
All volume elements are correctly orientend.
There has been a re-orientation of 650 LINE surface elements.
Identifying edges and vertices.
Setting the control volume structure.
Area of the computational grid: 4.05205.
Searching for the closest normal neighbors to the surfaces.
Storing a mapping from global to local point index.
Compute the surface curvature.
Max K: 73.2636. Mean K: 0.992989. Standard deviation K: 5.89891.
Checking for periodicity.
WARNING: Periodicity has been detected. Disabling multigrid. 
Computing mesh quality statistics for the dual control volumes.
+--------------------------------------------------------------+
|           Mesh Quality Metric|        Minimum|        Maximum|
+--------------------------------------------------------------+
|    Orthogonality Angle (deg.)|        29.0106|             90|
|     CV Face Area Aspect Ratio|        1.00013|        1797.27|
|           CV Sub-Volume Ratio|              1|        6.00387|
+--------------------------------------------------------------+
Finding max control volume width.
Communicating number of neighbors.
Reference length = 1.01901 m.
Wetted area = 3.59028 m.
Area projection in the x-plane = 1.30297 m, y-plane = 1.01901 m.
Max. coordinate in the x-direction = 1.01867 m, y-direction = 1.0951 m.
Min. coordinate in the x-direction = -0.000454689 m, y-direction = -0.207977 m.
Matching the periodic boundary points for marker pair 1.
 Matched 942 points with a max distance of: 2.0417e-13.
Computing wall distances.

-------------------- Solver Preprocessing ( Zone 0 ) --------------------
Viscous flow: Computing pressure using the ideal gas law
based on the free-stream temperature and a density computed
from the Reynolds number.
Force coefficients computed using free-stream values.

-- Models:
+------------------------------------------------------------------------------+
|          Viscosity Model|        Conductivity Model|              Fluid Model|
+------------------------------------------------------------------------------+
|               SUTHERLAND|          CONSTANT_PRANDTL|                IDEAL_GAS|
+------------------------------------------------------------------------------+
-- Fluid properties:
+------------------------------------------------------------------------------+
|                  Name|    Dim. value|    Ref. value|      Unit|Non-dim. value|
+------------------------------------------------------------------------------+
|        Ref. Viscosity|     1.716e-05|             1|   N.s/m^2|     1.716e-05|
|      Sutherland Temp.|        273.15|             1|         K|        273.15|
|     Sutherland Const.|         110.4|             1|         K|         110.4|
+------------------------------------------------------------------------------+
|        Prandtl (Lam.)|             -|             -|         -|          0.72|
|       Prandtl (Turb.)|             -|             -|         -|           0.9|
+------------------------------------------------------------------------------+
|          Gas Constant|       287.058|             1|  N.m/kg.K|       287.058|
|      Spec. Heat Ratio|             -|             -|         -|           1.4|
+------------------------------------------------------------------------------+
-- Initial and free-stream conditions:
+------------------------------------------------------------------------------+
|                  Name|    Dim. value|    Ref. value|      Unit|Non-dim. value|
+------------------------------------------------------------------------------+
|       Static Pressure|       5489.87|             1|        Pa|       5489.87|
|               Density|     0.0637486|             1|    kg/m^3|     0.0637486|
|           Temperature|           300|             1|         K|           300|
|          Total Energy|        230364|             1|   m^2/s^2|        230364|
|            Velocity-X|       171.922|             1|       m/s|       171.922|
|            Velocity-Y|      -24.1621|             1|       m/s|      -24.1621|
|    Velocity Magnitude|       173.612|             1|       m/s|       173.612|
+------------------------------------------------------------------------------+
|             Viscosity|   1.84592e-05|             1|   N.s/m^2|   1.84592e-05|
|          Conductivity|             -|             1|   W/m^2.K|             -|
|     Turb. Kin. Energy|       55.3843|             1|   m^2/s^2|       55.3843|
|     Spec. Dissipation|   1.91269e+06|             1|       1/s|   1.91269e+06|
+------------------------------------------------------------------------------+
|           Mach Number|             -|             -|         -|           0.5|
|       Reynolds Number|             -|             -|         -|        600000|
+------------------------------------------------------------------------------+
Initialize Jacobian structure (Navier-Stokes). MG level: 0.
Initialize Jacobian structure (SA model).

------------------- Numerics Preprocessing ( Zone 0 ) -------------------

----------------- Integration Preprocessing ( Zone 0 ) ------------------

------------------- Iteration Preprocessing ( Zone 0 ) ------------------
Euler/Navier-Stokes/RANS fluid iteration.

------------------------------ Begin Solver -----------------------------

Simulation Run using the Single-zone Driver
WARNING: SU2 was not compiled for an AVX-capable architecture. Performance could be better,
         see https://su2code.github.io/docs_v7/Build-SU2-Linux-MacOS/#compiler-optimizations
+--------------------------------------+
|  Inner_Iter|    Cur_Time|    rms[Rho]|
+--------------------------------------+
|           0|  0.0000e+00|   -1.873677|
|          10|  0.0000e+00|   -2.572856|
|          20|  0.0000e+00|   -2.526644|
|          30|  0.0000e+00|   -2.480100|
|          40|  0.0000e+00|   -2.604054|
|          50|  0.0000e+00|   -2.609674|
+-----------------------------------------------------------------------+
|        File Writing Summary       |              Filename             |
+-----------------------------------------------------------------------+
|SU2 binary restart                 |restart_flow_databladeVALIDATION_Blade_17.dat|
|                                   |                     (5495.49 MB/s)|
|Paraview                           |volume_flow_databladeVALIDATION_Blade_17.vtu|
|                                   |                      (502.83 MB/s)|
|Paraview surface                   |surface_flowdatabladeVALIDATION_Blade_17.vtu|
|                                   |                     (41.4024 MB/s)|
|SU2 ASCII restart                  |restart_flow_databladeVALIDATION_Blade_17.csv|
|                                   |                      (21.994 MB/s)|
|CSV file                           |surface_flowdatabladeVALIDATION_Blade_17.csv|
|                                   |                     (17.2951 MB/s)|
+-----------------------------------------------------------------------+
+--------------------------------------+
|  Inner_Iter|    Cur_Time|    rms[Rho]|
+--------------------------------------+
|          60|  0.0000e+00|   -2.588153|
|          70|  0.0000e+00|   -2.649693|
|          80|  0.0000e+00|   -2.673105|
|          90|  0.0000e+00|   -2.647505|
|         100|  0.0000e+00|   -2.614056|
+-----------------------------------------------------------------------+
|        File Writing Summary       |              Filename             |
+-----------------------------------------------------------------------+
|SU2 binary restart                 |restart_flow_databladeVALIDATION_Blade_17.dat|
|                                   |                     (6244.29 MB/s)|
|Paraview                           |volume_flow_databladeVALIDATION_Blade_17.vtu|
|                                   |                     (538.271 MB/s)|
|Paraview surface                   |surface_flowdatabladeVALIDATION_Blade_17.vtu|
|                                   |                      (37.998 MB/s)|
|SU2 ASCII restart                  |restart_flow_databladeVALIDATION_Blade_17.csv|
|                                   |                     (21.6605 MB/s)|
|CSV file                           |surface_flowdatabladeVALIDATION_Blade_17.csv|
|                                   |                     (17.0004 MB/s)|
+-----------------------------------------------------------------------+
+--------------------------------------+
|  Inner_Iter|    Cur_Time|    rms[Rho]|
+--------------------------------------+
|         110|  0.0000e+00|   -2.677482|
|         120|  0.0000e+00|   -2.712478|
|         130|  0.0000e+00|   -2.653191|
|         140|  0.0000e+00|   -2.700251|
|         150|  0.0000e+00|   -2.709324|
+-----------------------------------------------------------------------+
|        File Writing Summary       |              Filename             |
+-----------------------------------------------------------------------+
|SU2 binary restart                 |restart_flow_databladeVALIDATION_Blade_17.dat|
|                                   |                     (7130.96 MB/s)|
|Paraview                           |volume_flow_databladeVALIDATION_Blade_17.vtu|
|                                   |                     (544.325 MB/s)|
|Paraview surface                   |surface_flowdatabladeVALIDATION_Blade_17.vtu|
|                                   |                     (44.2795 MB/s)|
|SU2 ASCII restart                  |restart_flow_databladeVALIDATION_Blade_17.csv|
|                                   |                     (21.6906 MB/s)|
|CSV file                           |surface_flowdatabladeVALIDATION_Blade_17.csv|
|                                   |                     (17.3329 MB/s)|
+-----------------------------------------------------------------------+
+--------------------------------------+
|  Inner_Iter|    Cur_Time|    rms[Rho]|
+--------------------------------------+
|         160|  0.0000e+00|   -2.691755|
|         170|  0.0000e+00|   -2.616653|
|         180|  0.0000e+00|   -2.625635|
|         190|  0.0000e+00|   -2.489990|
|         200|  0.0000e+00|   -2.355676|
+-----------------------------------------------------------------------+
|        File Writing Summary       |              Filename             |
+-----------------------------------------------------------------------+
|SU2 binary restart                 |restart_flow_databladeVALIDATION_Blade_17.dat|
|                                   |                     (5923.21 MB/s)|
|Paraview                           |volume_flow_databladeVALIDATION_Blade_17.vtu|
|                                   |                      (554.62 MB/s)|
|Paraview surface                   |surface_flowdatabladeVALIDATION_Blade_17.vtu|
|                                   |                     (37.5201 MB/s)|
|SU2 ASCII restart                  |restart_flow_databladeVALIDATION_Blade_17.csv|
|                                   |                     (21.8833 MB/s)|
|CSV file                           |surface_flowdatabladeVALIDATION_Blade_17.csv|
|                                   |                     (16.5456 MB/s)|
+-----------------------------------------------------------------------+
+--------------------------------------+
|  Inner_Iter|    Cur_Time|    rms[Rho]|
+--------------------------------------+
|         210|  0.0000e+00|   -2.193540|
|         220|  0.0000e+00|   -2.060079|
|         230|  0.0000e+00|   -2.047095|
|         240|  0.0000e+00|   -2.041907|
|         250|  0.0000e+00|   -2.032490|
+-----------------------------------------------------------------------+
|        File Writing Summary       |              Filename             |
+-----------------------------------------------------------------------+
|SU2 binary restart                 |restart_flow_databladeVALIDATION_Blade_17.dat|
|                                   |                     (6244.95 MB/s)|
|Paraview                           |volume_flow_databladeVALIDATION_Blade_17.vtu|
|                                   |                     (552.772 MB/s)|
|Paraview surface                   |surface_flowdatabladeVALIDATION_Blade_17.vtu|
|                                   |                     (44.1699 MB/s)|
|SU2 ASCII restart                  |restart_flow_databladeVALIDATION_Blade_17.csv|
|                                   |                     (21.5913 MB/s)|
|CSV file                           |surface_flowdatabladeVALIDATION_Blade_17.csv|
|                                   |                     (17.1441 MB/s)|
+-----------------------------------------------------------------------+
+--------------------------------------+
|  Inner_Iter|    Cur_Time|    rms[Rho]|
+--------------------------------------+
|         260|  0.0000e+00|   -2.034191|
|         270|  0.0000e+00|   -2.092541|
|         280|  0.0000e+00|   -1.966235|
|         290|  0.0000e+00|   -1.828338|
|         300|  0.0000e+00|   -1.781022|
+-----------------------------------------------------------------------+
|        File Writing Summary       |              Filename             |
+-----------------------------------------------------------------------+
|SU2 binary restart                 |restart_flow_databladeVALIDATION_Blade_17.dat|
|                                   |                      (6370.6 MB/s)|
|Paraview                           |volume_flow_databladeVALIDATION_Blade_17.vtu|
|                                   |                     (563.733 MB/s)|
|Paraview surface                   |surface_flowdatabladeVALIDATION_Blade_17.vtu|
|                                   |                     (41.6831 MB/s)|
|SU2 ASCII restart                  |restart_flow_databladeVALIDATION_Blade_17.csv|
|                                   |                      (21.759 MB/s)|
|CSV file                           |surface_flowdatabladeVALIDATION_Blade_17.csv|
|                                   |                     (16.7449 MB/s)|
+-----------------------------------------------------------------------+
+--------------------------------------+
|  Inner_Iter|    Cur_Time|    rms[Rho]|
+--------------------------------------+
|         310|  0.0000e+00|   -1.677934|
|         320|  0.0000e+00|   -1.604863|
|         330|  0.0000e+00|   -1.457201|
|         340|  0.0000e+00|   -1.471182|
|         350|  0.0000e+00|   -1.554458|
+-----------------------------------------------------------------------+
|        File Writing Summary       |              Filename             |
+-----------------------------------------------------------------------+
|SU2 binary restart                 |restart_flow_databladeVALIDATION_Blade_17.dat|
|                                   |                     (7291.67 MB/s)|
|Paraview                           |volume_flow_databladeVALIDATION_Blade_17.vtu|
|                                   |                     (510.749 MB/s)|
|Paraview surface                   |surface_flowdatabladeVALIDATION_Blade_17.vtu|
|                                   |                     (42.6263 MB/s)|
|SU2 ASCII restart                  |restart_flow_databladeVALIDATION_Blade_17.csv|
|                                   |                      (21.774 MB/s)|
|CSV file                           |surface_flowdatabladeVALIDATION_Blade_17.csv|
|                                   |                     (17.9992 MB/s)|
+-----------------------------------------------------------------------+
+--------------------------------------+
|  Inner_Iter|    Cur_Time|    rms[Rho]|
+--------------------------------------+
|         360|  0.0000e+00|   -1.544662|
|         370|  0.0000e+00|   -1.590277|
|         380|  0.0000e+00|   -1.612597|
|         390|  0.0000e+00|   -1.613642|
|         400|  0.0000e+00|   -1.606838|
+-----------------------------------------------------------------------+
|        File Writing Summary       |              Filename             |
+-----------------------------------------------------------------------+
|SU2 binary restart                 |restart_flow_databladeVALIDATION_Blade_17.dat|
|                                   |                     (5893.72 MB/s)|
|Paraview                           |volume_flow_databladeVALIDATION_Blade_17.vtu|
|                                   |                       (559.8 MB/s)|
|Paraview surface                   |surface_flowdatabladeVALIDATION_Blade_17.vtu|
|                                   |                     (43.4776 MB/s)|
|SU2 ASCII restart                  |restart_flow_databladeVALIDATION_Blade_17.csv|
|                                   |                     (21.3438 MB/s)|
|CSV file                           |surface_flowdatabladeVALIDATION_Blade_17.csv|
|                                   |                     (15.7316 MB/s)|
+-----------------------------------------------------------------------+
+--------------------------------------+
|  Inner_Iter|    Cur_Time|    rms[Rho]|
+--------------------------------------+
|         410|  0.0000e+00|   -1.595168|
|         420|  0.0000e+00|   -1.584332|
|         430|  0.0000e+00|   -1.572994|
|         440|  0.0000e+00|   -1.554869|
|         450|  0.0000e+00|   -1.537760|
+-----------------------------------------------------------------------+
|        File Writing Summary       |              Filename             |
+-----------------------------------------------------------------------+
|SU2 binary restart                 |restart_flow_databladeVALIDATION_Blade_17.dat|
|                                   |                     (6145.77 MB/s)|
|Paraview                           |volume_flow_databladeVALIDATION_Blade_17.vtu|
|                                   |                     (539.461 MB/s)|
|Paraview surface                   |surface_flowdatabladeVALIDATION_Blade_17.vtu|
|                                   |                      (40.029 MB/s)|
|SU2 ASCII restart                  |restart_flow_databladeVALIDATION_Blade_17.csv|
|                                   |                     (21.4256 MB/s)|
|CSV file                           |surface_flowdatabladeVALIDATION_Blade_17.csv|
|                                   |                        (17.3 MB/s)|
+-----------------------------------------------------------------------+
+--------------------------------------+
|  Inner_Iter|    Cur_Time|    rms[Rho]|
+--------------------------------------+
|         460|  0.0000e+00|   -1.519149|
|         470|  0.0000e+00|   -1.499300|
|         480|  0.0000e+00|   -1.443028|
|         490|  0.0000e+00|   -1.313898|
|         500|  0.0000e+00|   -1.119183|
+-----------------------------------------------------------------------+
|        File Writing Summary       |              Filename             |
+-----------------------------------------------------------------------+
|SU2 binary restart                 |restart_flow_databladeVALIDATION_Blade_17.dat|
|                                   |                     (6203.73 MB/s)|
|Paraview                           |volume_flow_databladeVALIDATION_Blade_17.vtu|
|                                   |                     (578.539 MB/s)|
|Paraview surface                   |surface_flowdatabladeVALIDATION_Blade_17.vtu|
|                                   |                     (43.9948 MB/s)|
|SU2 ASCII restart                  |restart_flow_databladeVALIDATION_Blade_17.csv|
|                                   |                     (21.5111 MB/s)|
|CSV file                           |surface_flowdatabladeVALIDATION_Blade_17.csv|
|                                   |                     (19.3687 MB/s)|
+-----------------------------------------------------------------------+
+--------------------------------------+
|  Inner_Iter|    Cur_Time|    rms[Rho]|
+--------------------------------------+
|         510|  0.0000e+00|   -1.223749|
|         520|  0.0000e+00|   -1.268824|
|         530|  0.0000e+00|   -1.247860|
|         540|  0.0000e+00|   -1.111217|
|         550|  0.0000e+00|   -1.012352|
+-----------------------------------------------------------------------+
|        File Writing Summary       |              Filename             |
+-----------------------------------------------------------------------+
|SU2 binary restart                 |restart_flow_databladeVALIDATION_Blade_17.dat|
|                                   |                     (5006.63 MB/s)|
|Paraview                           |volume_flow_databladeVALIDATION_Blade_17.vtu|
|                                   |                     (500.608 MB/s)|
|Paraview surface                   |surface_flowdatabladeVALIDATION_Blade_17.vtu|
|                                   |                     (5.57144 MB/s)|
|SU2 ASCII restart                  |restart_flow_databladeVALIDATION_Blade_17.csv|
|                                   |                     (21.6696 MB/s)|
|CSV file                           |surface_flowdatabladeVALIDATION_Blade_17.csv|
|                                   |                     (15.9514 MB/s)|
+-----------------------------------------------------------------------+
+--------------------------------------+
|  Inner_Iter|    Cur_Time|    rms[Rho]|
+--------------------------------------+
|         560|  0.0000e+00|   -1.236999|
|         570|  0.0000e+00|   -1.217340|
|         580|  0.0000e+00|   -1.097630|
|         590|  0.0000e+00|   -1.082733|
|         600|  0.0000e+00|   -1.066599|
+-----------------------------------------------------------------------+
|        File Writing Summary       |              Filename             |
+-----------------------------------------------------------------------+
|SU2 binary restart                 |restart_flow_databladeVALIDATION_Blade_17.dat|
|                                   |                     (6288.06 MB/s)|
|Paraview                           |volume_flow_databladeVALIDATION_Blade_17.vtu|
|                                   |                     (500.834 MB/s)|
|Paraview surface                   |surface_flowdatabladeVALIDATION_Blade_17.vtu|
|                                   |                     (44.4265 MB/s)|
|SU2 ASCII restart                  |restart_flow_databladeVALIDATION_Blade_17.csv|
|                                   |                     (21.5321 MB/s)|
|CSV file                           |surface_flowdatabladeVALIDATION_Blade_17.csv|
|                                   |                     (15.6485 MB/s)|
+-----------------------------------------------------------------------+
+--------------------------------------+
|  Inner_Iter|    Cur_Time|    rms[Rho]|
+--------------------------------------+
|         610|  0.0000e+00|   -1.069113|
|         620|  0.0000e+00|   -1.118181|
|         630|  0.0000e+00|   -1.038254|
|         640|  0.0000e+00|   -0.904048|
|         650|  0.0000e+00|   -0.898170|
+-----------------------------------------------------------------------+
|        File Writing Summary       |              Filename             |
+-----------------------------------------------------------------------+
|SU2 binary restart                 |restart_flow_databladeVALIDATION_Blade_17.dat|
|                                   |                     (5878.51 MB/s)|
|Paraview                           |volume_flow_databladeVALIDATION_Blade_17.vtu|
|                                   |                     (576.189 MB/s)|
|Paraview surface                   |surface_flowdatabladeVALIDATION_Blade_17.vtu|
|                                   |                     (43.6256 MB/s)|
|SU2 ASCII restart                  |restart_flow_databladeVALIDATION_Blade_17.csv|
|                                   |                     (21.8096 MB/s)|
|CSV file                           |surface_flowdatabladeVALIDATION_Blade_17.csv|
|                                   |                     (18.9102 MB/s)|
+-----------------------------------------------------------------------+
+--------------------------------------+
|  Inner_Iter|    Cur_Time|    rms[Rho]|
+--------------------------------------+
|         660|  0.0000e+00|   -0.926473|
|         670|  0.0000e+00|   -0.936869|
|         680|  0.0000e+00|   -0.886862|
|         690|  0.0000e+00|   -0.886645|
|         700|  0.0000e+00|   -0.819278|
+-----------------------------------------------------------------------+
|        File Writing Summary       |              Filename             |
+-----------------------------------------------------------------------+
|SU2 binary restart                 |restart_flow_databladeVALIDATION_Blade_17.dat|
|                                   |                      (5904.3 MB/s)|
|Paraview                           |volume_flow_databladeVALIDATION_Blade_17.vtu|
|                                   |                      (551.59 MB/s)|
|Paraview surface                   |surface_flowdatabladeVALIDATION_Blade_17.vtu|
|                                   |                     (43.4278 MB/s)|
|SU2 ASCII restart                  |restart_flow_databladeVALIDATION_Blade_17.csv|
|                                   |                     (21.6038 MB/s)|
|CSV file                           |surface_flowdatabladeVALIDATION_Blade_17.csv|
|                                   |                     (18.5866 MB/s)|
+-----------------------------------------------------------------------+
+--------------------------------------+
|  Inner_Iter|    Cur_Time|    rms[Rho]|
+--------------------------------------+


Error in "void CSolver::SetResidual_RMS(const CGeometry*, const CConfig*)": 
-------------------------------------------------------------------------
SU2 has diverged (NaN detected).
------------------------------ Error Exit -------------------------------



job aborted:
[ranks] message

[0] application aborted
aborting MPI_COMM_WORLD (comm=0x44000000), error 1, comm rank 0

[1-11] terminated

---- error analysis -----

[0] on LAPTOP-UFVPVEMV
SU2_CFD aborted the job. abort code 1

---- error analysis -----
