
-------------------------------------------------------------------------
|    ___ _   _ ___                                                      |
|   / __| | | |_  )   Release 8.0.1 "Harrier"                           |
|   \__ \ |_| |/ /                                                      |
|   |___/\___//___|   Suite (Computational Fluid Dynamics Code)         |
|                                                                       |
-------------------------------------------------------------------------
| SU2 Project Website: https://su2code.github.io                        |
|                                                                       |
| The SU2 Project is maintained by the SU2 Foundation                   |
| (http://su2foundation.org)                                            |
-------------------------------------------------------------------------
| Copyright 2012-2024, SU2 Contributors                                 |
|                                                                       |
| SU2 is free software; you can redistribute it and/or                  |
| modify it under the terms of the GNU Lesser General Public            |
| License as published by the Free Software Foundation; either          |
| version 2.1 of the License, or (at your option) any later version.    |
|                                                                       |
| SU2 is distributed in the hope that it will be useful,                |
| but WITHOUT ANY WARRANTY; without even the implied warranty of        |
| MERCHANTABILITY or FITNESS FOR A PARTICULAR PURPOSE. See the GNU      |
| Lesser General Public License for more details.                       |
|                                                                       |
| You should have received a copy of the GNU Lesser General Public      |
| License along with SU2. If not, see <http://www.gnu.org/licenses/>.   |
-------------------------------------------------------------------------

Parsing config file for zone 0

----------------- Physical Case Definition ( Zone 0 ) -------------------
Compressible RANS equations.
Turbulence model: Spalart-Allmaras-noft2-BCM
Hybrid RANS/LES: No Hybrid RANS/LES
Mach number: 0.667.
Angle of attack (AoA): -6 deg, and angle of sideslip (AoS): 0 deg.
Reynolds number: 600000. Reference length 1.0021.
No restart solution, use the values at infinity (freestream).
Dimensional simulation.
The reference area will be computed using y(2D) or z(3D) projection.
The semi-span will be computed using the max y(3D) value.
The reference length is 1.0021 m.
Reference origin for moment evaluation is (0, 0, 0).
Surface(s) where the force coefficients are evaluated: blade1.

Surface(s) plotted in the output file: blade1.
Surface(s) to be analyzed in detail: inlet, outlet, blade1.
Input mesh file name: cascade2D_databladeVALIDATION_Blade_20.su2

--------------- Space Numerical Integration ( Zone 0 ) ------------------
Jameson-Schmidt-Turkel scheme (2nd order in space) for the flow inviscid terms.
JST viscous coefficients (2nd & 4th): 0.5, 0.02.
The method includes a grid stretching correction (p = 0.3).
Scalar upwind solver for the turbulence model.
First order integration in space.
Average of gradients with correction (viscous flow terms).
Average of gradients with correction (viscous turbulence terms).
Gradient for upwind reconstruction: inverse-distance weighted Least-Squares.
Gradient for viscous and source terms: inverse-distance weighted Least-Squares.

--------------- Time Numerical Integration  ( Zone 0 ) ------------------
Local time stepping (steady state simulation).
Euler implicit method for the flow equations.
FGMRES is used for solving the linear system.
Using a LU-SGS preconditioning.
Convergence criteria of the linear solver: 0.0001.
Max number of linear iterations: 10.
V Multigrid Cycle, with 3 multigrid levels.
Damping factor for the residual restriction: 0.75.
Damping factor for the correction prolongation: 0.75.
CFL adaptation. Factor down: 0.1, factor up: 1.2,
                lower limit: 0.1, upper limit: 100,
                acceptable linear residual: 0.001.
+-------------------------------------------+
|  MG Level| Presmooth|PostSmooth|CorrectSmo|
+-------------------------------------------+
|         0|         1|         0|         1|
|         1|         2|         2|         2|
|         2|         3|         3|         3|
|         3|         3|         0|         0|
+-------------------------------------------+
Courant-Friedrichs-Lewy number:       12
Euler implicit time integration for the turbulence model.

------------------ Convergence Criteria  ( Zone 0 ) ---------------------
Maximum number of solver subiterations: 7000.
Begin convergence monitoring at iteration 500.
Residual minimum value: 1e-7.
Cauchy series min. value: 1e-10.
Number of Cauchy elements: 100.
Begin windowed time average at iteration 0.

-------------------- Output Information ( Zone 0 ) ----------------------
File writing frequency: 
+------------------------------------+
|                     File| Frequency|
+------------------------------------+
|                  RESTART|        50|
|                 PARAVIEW|        50|
|         SURFACE_PARAVIEW|        50|
|                      CSV|        50|
|              SURFACE_CSV|        50|
+------------------------------------+
Writing the convergence history file every 1 inner iterations.
Writing the screen convergence history every 10 inner iterations.
The tabular file format is CSV (.csv).
Convergence history file name: history_databladeVALIDATION_Blade_20.
Forces breakdown file name: forces_breakdown.dat.
Surface file name: surface_flowdatabladeVALIDATION_Blade_20.
Volume file name: volume_flow_databladeVALIDATION_Blade_20.
Restart file name: restart_flow_databladeVALIDATION_Blade_20.dat.

------------- Config File Boundary Information ( Zone 0 ) ---------------
+-----------------------------------------------------------------------+
|                        Marker Type|                        Marker Name|
+-----------------------------------------------------------------------+
|                  Periodic boundary|               symmetricWallsBOTTOM|
|                                   |                  symmetricWallsTOP|
+-----------------------------------------------------------------------+
|                     Inlet boundary|                              inlet|
+-----------------------------------------------------------------------+
|                    Outlet boundary|                             outlet|
+-----------------------------------------------------------------------+
|                     Heat flux wall|                             blade1|
|                                   |                             blade2|
+-----------------------------------------------------------------------+

-------------------- Output Preprocessing ( Zone 0 ) --------------------
  Info: Ignoring the following screen output fields:
  LINSOL_ITER_TRANS, LINSOL_RESIDUAL_TRANS
Screen output fields: INNER_ITER, WALL_TIME, RMS_DENSITY
  Info: Ignoring the following history output groups:
  RMS_TKE, RMS_DISSIPATION
History output group(s): INNER_ITER, WALL_TIME, RMS_DENSITY, RMS_MOMENTUM-X, RMS_ENERGY, LINSOL, CFL_NUMBER, FLOW_COEFF_SURF, AERO_COEFF_SURF
Convergence field(s): RMS_DENSITY
Warning: No (valid) fields chosen for time convergence monitoring. Time convergence monitoring inactive.
Volume output fields: COORDINATES, SOLUTION, PRIMITIVE, RESIDUAL, TIMESTEP, MESH_QUALITY, VORTEX_IDENTIFICATION

------------------- Geometry Preprocessing ( Zone 0 ) -------------------
Two dimensional problem.
63242 grid points before partitioning.
94877 volume elements before partitioning.
5 surface markers.
24 boundary elements in index 0 (Marker = inlet).
340 boundary elements in index 1 (Marker = symmetricWallsBOTTOM).
340 boundary elements in index 2 (Marker = symmetricWallsTOP).
67 boundary elements in index 3 (Marker = outlet).
1186 boundary elements in index 4 (Marker = blade1).
Executing the partitioning functions.
Building the graph adjacency structure.
Calling ParMETIS... graph partitioning complete (1465 edge cuts).
Distributing ParMETIS coloring.
Rebalancing vertices.
Rebalancing volume element connectivity.
Rebalancing markers and surface elements.
65065 vertices including ghost points. 
96331 interior elements including halo cells. 
66336 triangles.
29995 quadrilaterals.
Establishing MPI communication patterns.
Setting point connectivity.
Renumbering points (Reverse Cuthill McKee Ordering).
Recomputing point connectivity.
Setting element connectivity.
Checking the numerical grid orientation.
All volume elements are correctly orientend.
There has been a re-orientation of 969 LINE surface elements.
Identifying edges and vertices.
Setting the control volume structure.
Area of the computational grid: 3.16263.
Searching for the closest normal neighbors to the surfaces.
Storing a mapping from global to local point index.
Compute the surface curvature.
Max K: 138.345. Mean K: 3.90839. Standard deviation K: 13.4918.
Checking for periodicity.
WARNING: Periodicity has been detected. Disabling multigrid. 
Computing mesh quality statistics for the dual control volumes.
+--------------------------------------------------------------+
|           Mesh Quality Metric|        Minimum|        Maximum|
+--------------------------------------------------------------+
|    Orthogonality Angle (deg.)|        52.2773|             90|
|     CV Face Area Aspect Ratio|        1.00054|        278.852|
|           CV Sub-Volume Ratio|              1|        21.4381|
+--------------------------------------------------------------+
Finding max control volume width.
Communicating number of neighbors.
Reference length = 1.01517 m.
Wetted area = 2.81975 m.
Area projection in the x-plane = 0.860507 m, y-plane = 1.01517 m.
Max. coordinate in the x-direction = 1.01503 m, y-direction = 0.751932 m.
Min. coordinate in the x-direction = -0.000147285 m, y-direction = -0.10858 m.
Matching the periodic boundary points for marker pair 1.
 Matched 682 points with a max distance of: 6.27014e-11.
Computing wall distances.

-------------------- Solver Preprocessing ( Zone 0 ) --------------------
Viscous flow: Computing pressure using the ideal gas law
based on the free-stream temperature and a density computed
from the Reynolds number.
Force coefficients computed using free-stream values.

-- Models:
+------------------------------------------------------------------------------+
|          Viscosity Model|        Conductivity Model|              Fluid Model|
+------------------------------------------------------------------------------+
|               SUTHERLAND|          CONSTANT_PRANDTL|                IDEAL_GAS|
+------------------------------------------------------------------------------+
-- Fluid properties:
+------------------------------------------------------------------------------+
|                  Name|    Dim. value|    Ref. value|      Unit|Non-dim. value|
+------------------------------------------------------------------------------+
|        Ref. Viscosity|     1.716e-05|             1|   N.s/m^2|     1.716e-05|
|      Sutherland Temp.|        273.15|             1|         K|        273.15|
|     Sutherland Const.|         110.4|             1|         K|         110.4|
+------------------------------------------------------------------------------+
|        Prandtl (Lam.)|             -|             -|         -|          0.72|
|       Prandtl (Turb.)|             -|             -|         -|           0.9|
+------------------------------------------------------------------------------+
|          Gas Constant|       287.058|             1|  N.m/kg.K|       287.058|
|      Spec. Heat Ratio|             -|             -|         -|           1.4|
+------------------------------------------------------------------------------+
-- Initial and free-stream conditions:
+------------------------------------------------------------------------------+
|                  Name|    Dim. value|    Ref. value|      Unit|Non-dim. value|
+------------------------------------------------------------------------------+
|       Static Pressure|       4109.68|             1|        Pa|       4109.68|
|               Density|     0.0477218|             1|    kg/m^3|     0.0477218|
|           Temperature|           300|             1|         K|           300|
|          Total Energy|        242112|             1|   m^2/s^2|        242112|
|            Velocity-X|        230.33|             1|       m/s|        230.33|
|            Velocity-Y|      -24.2086|             1|       m/s|      -24.2086|
|    Velocity Magnitude|       231.598|             1|       m/s|       231.598|
+------------------------------------------------------------------------------+
|             Viscosity|   1.84592e-05|             1|   N.s/m^2|   1.84592e-05|
|          Conductivity|             -|             1|   W/m^2.K|             -|
|     Turb. Kin. Energy|       98.5594|             1|   m^2/s^2|       98.5594|
|     Spec. Dissipation|   2.54802e+06|             1|       1/s|   2.54802e+06|
+------------------------------------------------------------------------------+
|           Mach Number|             -|             -|         -|         0.667|
|       Reynolds Number|             -|             -|         -|        600000|
+------------------------------------------------------------------------------+
Initialize Jacobian structure (Navier-Stokes). MG level: 0.
Initialize Jacobian structure (SA model).

------------------- Numerics Preprocessing ( Zone 0 ) -------------------

----------------- Integration Preprocessing ( Zone 0 ) ------------------

------------------- Iteration Preprocessing ( Zone 0 ) ------------------
Euler/Navier-Stokes/RANS fluid iteration.

------------------------------ Begin Solver -----------------------------

Simulation Run using the Single-zone Driver
WARNING: SU2 was not compiled for an AVX-capable architecture. Performance could be better,
         see https://su2code.github.io/docs_v7/Build-SU2-Linux-MacOS/#compiler-optimizations
+--------------------------------------+
|  Inner_Iter|   Time(sec)|    rms[Rho]|
+--------------------------------------+
|           0|  8.6434e-02|   -2.576382|
|          10|  7.0924e-02|   -3.194192|
|          20|  7.4155e-02|   -3.021605|
|          30|  7.3554e-02|   -3.026166|
|          40|  7.1032e-02|   -2.932056|
|          50|  7.4580e-02|   -2.942440|
+-----------------------------------------------------------------------+
|        File Writing Summary       |              Filename             |
+-----------------------------------------------------------------------+
|SU2 binary restart                 |restart_flow_databladeVALIDATION_Blade_20.dat|
|                                   |                     (7307.44 MB/s)|
|Paraview                           |volume_flow_databladeVALIDATION_Blade_20.vtu|
|                                   |                     (798.126 MB/s)|
|Paraview surface                   |surface_flowdatabladeVALIDATION_Blade_20.vtu|
|                                   |                     (31.7164 MB/s)|
|SU2 ASCII restart                  |restart_flow_databladeVALIDATION_Blade_20.csv|
|                                   |                     (20.4848 MB/s)|
|CSV file                           |surface_flowdatabladeVALIDATION_Blade_20.csv|
|                                   |                     (21.6865 MB/s)|
+-----------------------------------------------------------------------+
+--------------------------------------+
|  Inner_Iter|   Time(sec)|    rms[Rho]|
+--------------------------------------+
|          60|  1.1818e-01|   -3.033315|
|          70|  1.1388e-01|   -3.101637|
|          80|  1.1776e-01|   -3.122429|
|          90|  1.1586e-01|   -3.113186|
|         100|  1.1458e-01|   -3.006861|
+-----------------------------------------------------------------------+
|        File Writing Summary       |              Filename             |
+-----------------------------------------------------------------------+
|SU2 binary restart                 |restart_flow_databladeVALIDATION_Blade_20.dat|
|                                   |                     (2856.32 MB/s)|
|Paraview                           |volume_flow_databladeVALIDATION_Blade_20.vtu|
|                                   |                     (508.659 MB/s)|
|Paraview surface                   |surface_flowdatabladeVALIDATION_Blade_20.vtu|
|                                   |                     (47.3182 MB/s)|
|SU2 ASCII restart                  |restart_flow_databladeVALIDATION_Blade_20.csv|
|                                   |                     (19.1176 MB/s)|
|CSV file                           |surface_flowdatabladeVALIDATION_Blade_20.csv|
|                                   |                     (20.9205 MB/s)|
+-----------------------------------------------------------------------+
+--------------------------------------+
|  Inner_Iter|   Time(sec)|    rms[Rho]|
+--------------------------------------+
|         110|  1.3554e-01|   -3.056389|
|         120|  1.3097e-01|   -3.049998|
|         130|  1.2814e-01|   -3.093916|
|         140|  1.2568e-01|   -3.182946|
|         150|  1.2393e-01|   -3.111410|
+-----------------------------------------------------------------------+
|        File Writing Summary       |              Filename             |
+-----------------------------------------------------------------------+
|SU2 binary restart                 |restart_flow_databladeVALIDATION_Blade_20.dat|
|                                   |                     (12377.2 MB/s)|
|Paraview                           |volume_flow_databladeVALIDATION_Blade_20.vtu|
|                                   |                      (928.41 MB/s)|
|Paraview surface                   |surface_flowdatabladeVALIDATION_Blade_20.vtu|
|                                   |                     (96.4653 MB/s)|
|SU2 ASCII restart                  |restart_flow_databladeVALIDATION_Blade_20.csv|
|                                   |                     (20.6498 MB/s)|
|CSV file                           |surface_flowdatabladeVALIDATION_Blade_20.csv|
|                                   |                     (19.6059 MB/s)|
+-----------------------------------------------------------------------+
+--------------------------------------+
|  Inner_Iter|   Time(sec)|    rms[Rho]|
+--------------------------------------+
|         160|  1.3611e-01|   -3.072172|
|         170|  1.3446e-01|   -3.051774|
|         180|  1.3089e-01|   -3.077712|
|         190|  1.2930e-01|   -3.064872|
|         200|  1.2718e-01|   -3.112252|
+-----------------------------------------------------------------------+
|        File Writing Summary       |              Filename             |
+-----------------------------------------------------------------------+
|SU2 binary restart                 |restart_flow_databladeVALIDATION_Blade_20.dat|
|                                   |                     (13456.7 MB/s)|
|Paraview                           |volume_flow_databladeVALIDATION_Blade_20.vtu|
|                                   |                     (922.948 MB/s)|
|Paraview surface                   |surface_flowdatabladeVALIDATION_Blade_20.vtu|
|                                   |                     (84.6718 MB/s)|
|SU2 ASCII restart                  |restart_flow_databladeVALIDATION_Blade_20.csv|
|                                   |                     (20.3489 MB/s)|
|CSV file                           |surface_flowdatabladeVALIDATION_Blade_20.csv|
|                                   |                     (17.7476 MB/s)|
+-----------------------------------------------------------------------+
+--------------------------------------+
|  Inner_Iter|   Time(sec)|    rms[Rho]|
+--------------------------------------+
|         210|  1.3714e-01|   -3.244752|
|         220|  1.3411e-01|   -3.290587|
|         230|  1.3174e-01|   -3.285748|
|         240|  1.3091e-01|   -3.247564|
|         250|  1.2892e-01|   -3.180517|
+-----------------------------------------------------------------------+
|        File Writing Summary       |              Filename             |
+-----------------------------------------------------------------------+
|SU2 binary restart                 |restart_flow_databladeVALIDATION_Blade_20.dat|
|                                   |                     (10094.4 MB/s)|
|Paraview                           |volume_flow_databladeVALIDATION_Blade_20.vtu|
|                                   |                     (886.935 MB/s)|
|Paraview surface                   |surface_flowdatabladeVALIDATION_Blade_20.vtu|
|                                   |                     (85.5886 MB/s)|
|SU2 ASCII restart                  |restart_flow_databladeVALIDATION_Blade_20.csv|
|                                   |                     (20.4209 MB/s)|
|CSV file                           |surface_flowdatabladeVALIDATION_Blade_20.csv|
|                                   |                     (19.9094 MB/s)|
+-----------------------------------------------------------------------+
+--------------------------------------+
|  Inner_Iter|   Time(sec)|    rms[Rho]|
+--------------------------------------+
|         260|  1.3594e-01|   -3.210124|
|         270|  1.3376e-01|   -3.192227|
|         280|  1.3151e-01|   -3.222609|
|         290|  1.2931e-01|   -3.266364|
|         300|  1.2780e-01|   -3.304163|
+-----------------------------------------------------------------------+
|        File Writing Summary       |              Filename             |
+-----------------------------------------------------------------------+
|SU2 binary restart                 |restart_flow_databladeVALIDATION_Blade_20.dat|
|                                   |                     (12851.3 MB/s)|
|Paraview                           |volume_flow_databladeVALIDATION_Blade_20.vtu|
|                                   |                     (1011.57 MB/s)|
|Paraview surface                   |surface_flowdatabladeVALIDATION_Blade_20.vtu|
|                                   |                     (98.6239 MB/s)|
|SU2 ASCII restart                  |restart_flow_databladeVALIDATION_Blade_20.csv|
|                                   |                     (20.9801 MB/s)|
|CSV file                           |surface_flowdatabladeVALIDATION_Blade_20.csv|
|                                   |                     (19.1702 MB/s)|
+-----------------------------------------------------------------------+
+--------------------------------------+
|  Inner_Iter|   Time(sec)|    rms[Rho]|
+--------------------------------------+
|         310|  1.3416e-01|   -3.267076|
|         320|  1.3251e-01|   -3.348632|
|         330|  1.3110e-01|   -3.403433|
|         340|  1.2968e-01|   -3.446044|
|         350|  1.2818e-01|   -3.473078|
+-----------------------------------------------------------------------+
|        File Writing Summary       |              Filename             |
+-----------------------------------------------------------------------+
|SU2 binary restart                 |restart_flow_databladeVALIDATION_Blade_20.dat|
|                                   |                     (13194.2 MB/s)|
|Paraview                           |volume_flow_databladeVALIDATION_Blade_20.vtu|
|                                   |                     (838.057 MB/s)|
|Paraview surface                   |surface_flowdatabladeVALIDATION_Blade_20.vtu|
|                                   |                     (86.3829 MB/s)|
|SU2 ASCII restart                  |restart_flow_databladeVALIDATION_Blade_20.csv|
|                                   |                     (20.4937 MB/s)|
|CSV file                           |surface_flowdatabladeVALIDATION_Blade_20.csv|
|                                   |                      (21.249 MB/s)|
+-----------------------------------------------------------------------+
+--------------------------------------+
|  Inner_Iter|   Time(sec)|    rms[Rho]|
+--------------------------------------+
|         360|  1.3336e-01|   -3.508620|
|         370|  1.3133e-01|   -3.538715|
|         380|  1.2943e-01|   -3.568228|
|         390|  1.2784e-01|   -3.580503|
|         400|  1.2620e-01|   -3.614488|
+-----------------------------------------------------------------------+
|        File Writing Summary       |              Filename             |
+-----------------------------------------------------------------------+
|SU2 binary restart                 |restart_flow_databladeVALIDATION_Blade_20.dat|
|                                   |                     (13499.1 MB/s)|
|Paraview                           |volume_flow_databladeVALIDATION_Blade_20.vtu|
|                                   |                      (961.36 MB/s)|
|Paraview surface                   |surface_flowdatabladeVALIDATION_Blade_20.vtu|
|                                   |                     (89.2845 MB/s)|
|SU2 ASCII restart                  |restart_flow_databladeVALIDATION_Blade_20.csv|
|                                   |                      (20.479 MB/s)|
|CSV file                           |surface_flowdatabladeVALIDATION_Blade_20.csv|
|                                   |                     (16.6897 MB/s)|
+-----------------------------------------------------------------------+
+--------------------------------------+
|  Inner_Iter|   Time(sec)|    rms[Rho]|
+--------------------------------------+
|         410|  1.3077e-01|   -3.638862|
|         420|  1.2943e-01|   -3.611383|
|         430|  1.2801e-01|   -3.646300|
|         440|  1.2656e-01|   -3.655975|
|         450|  1.2531e-01|   -3.584479|
+-----------------------------------------------------------------------+
|        File Writing Summary       |              Filename             |
+-----------------------------------------------------------------------+
|SU2 binary restart                 |restart_flow_databladeVALIDATION_Blade_20.dat|
|                                   |                     (13035.7 MB/s)|
|Paraview                           |volume_flow_databladeVALIDATION_Blade_20.vtu|
|                                   |                     (1061.55 MB/s)|
|Paraview surface                   |surface_flowdatabladeVALIDATION_Blade_20.vtu|
|                                   |                     (102.381 MB/s)|
|SU2 ASCII restart                  |restart_flow_databladeVALIDATION_Blade_20.csv|
|                                   |                     (20.2384 MB/s)|
|CSV file                           |surface_flowdatabladeVALIDATION_Blade_20.csv|
|                                   |                     (18.1672 MB/s)|
+-----------------------------------------------------------------------+
+--------------------------------------+
|  Inner_Iter|   Time(sec)|    rms[Rho]|
+--------------------------------------+
|         460|  1.2997e-01|   -3.570327|
|         470|  1.2880e-01|   -3.663698|
|         480|  1.2781e-01|   -3.701663|
|         490|  1.2672e-01|   -3.693447|
|         500|  1.2553e-01|   -3.779318|
+-----------------------------------------------------------------------+
|        File Writing Summary       |              Filename             |
+-----------------------------------------------------------------------+
|SU2 binary restart                 |restart_flow_databladeVALIDATION_Blade_20.dat|
|                                   |                     (12810.9 MB/s)|
|Paraview                           |volume_flow_databladeVALIDATION_Blade_20.vtu|
|                                   |                     (1041.47 MB/s)|
|Paraview surface                   |surface_flowdatabladeVALIDATION_Blade_20.vtu|
|                                   |                     (86.0315 MB/s)|
|SU2 ASCII restart                  |restart_flow_databladeVALIDATION_Blade_20.csv|
|                                   |                     (18.6589 MB/s)|
|CSV file                           |surface_flowdatabladeVALIDATION_Blade_20.csv|
|                                   |                     (19.4765 MB/s)|
+-----------------------------------------------------------------------+
+--------------------------------------+
|  Inner_Iter|   Time(sec)|    rms[Rho]|
+--------------------------------------+
|         510|  1.2977e-01|   -3.819145|
|         520|  1.2877e-01|   -3.798220|
|         530|  1.2807e-01|   -3.754104|
|         540|  1.2692e-01|   -3.835192|
|         550|  1.2601e-01|   -3.881143|
+-----------------------------------------------------------------------+
|        File Writing Summary       |              Filename             |
+-----------------------------------------------------------------------+
|SU2 binary restart                 |restart_flow_databladeVALIDATION_Blade_20.dat|
|                                   |                     (3016.48 MB/s)|
|Paraview                           |volume_flow_databladeVALIDATION_Blade_20.vtu|
|                                   |                     (967.336 MB/s)|
|Paraview surface                   |surface_flowdatabladeVALIDATION_Blade_20.vtu|
|                                   |                     (85.0092 MB/s)|
|SU2 ASCII restart                  |restart_flow_databladeVALIDATION_Blade_20.csv|
|                                   |                     (19.8757 MB/s)|
|CSV file                           |surface_flowdatabladeVALIDATION_Blade_20.csv|
|                                   |                     (13.9501 MB/s)|
+-----------------------------------------------------------------------+
+--------------------------------------+
|  Inner_Iter|   Time(sec)|    rms[Rho]|
+--------------------------------------+
|         560|  1.2969e-01|   -3.866008|
|         570|  1.2888e-01|   -3.904336|
|         580|  1.2804e-01|   -3.953131|
|         590|  1.2716e-01|   -3.976448|
|         600|  1.2647e-01|   -3.974820|
+-----------------------------------------------------------------------+
|        File Writing Summary       |              Filename             |
+-----------------------------------------------------------------------+
|SU2 binary restart                 |restart_flow_databladeVALIDATION_Blade_20.dat|


Error in "bool CFileWriter::OpenMPIFile(std::string)": 
-------------------------------------------------------------------------
Unable to open file restart_flow_databladeVALIDATION_Blade_20.dat
------------------------------ Error Exit -------------------------------



job aborted:
[ranks] message

[0] application aborted
aborting MPI_COMM_WORLD (comm=0x44000000), error 1, comm rank 0

[1-11] terminated

---- error analysis -----

[0] on LAPTOP-UFVPVEMV
SU2_CFD aborted the job. abort code 1

---- error analysis -----
