
-------------------------------------------------------------------------
|    ___ _   _ ___                                                      |
|   / __| | | |_  )   Release 8.0.1 "Harrier"                           |
|   \__ \ |_| |/ /                                                      |
|   |___/\___//___|   Suite (Computational Fluid Dynamics Code)         |
|                                                                       |
-------------------------------------------------------------------------
| SU2 Project Website: https://su2code.github.io                        |
|                                                                       |
| The SU2 Project is maintained by the SU2 Foundation                   |
| (http://su2foundation.org)                                            |
-------------------------------------------------------------------------
| Copyright 2012-2024, SU2 Contributors                                 |
|                                                                       |
| SU2 is free software; you can redistribute it and/or                  |
| modify it under the terms of the GNU Lesser General Public            |
| License as published by the Free Software Foundation; either          |
| version 2.1 of the License, or (at your option) any later version.    |
|                                                                       |
| SU2 is distributed in the hope that it will be useful,                |
| but WITHOUT ANY WARRANTY; without even the implied warranty of        |
| MERCHANTABILITY or FITNESS FOR A PARTICULAR PURPOSE. See the GNU      |
| Lesser General Public License for more details.                       |
|                                                                       |
| You should have received a copy of the GNU Lesser General Public      |
| License along with SU2. If not, see <http://www.gnu.org/licenses/>.   |
-------------------------------------------------------------------------

Parsing config file for zone 0

----------------- Physical Case Definition ( Zone 0 ) -------------------
Compressible RANS equations.
Turbulence model: Spalart-Allmaras-noft2-BCM
Hybrid RANS/LES: No Hybrid RANS/LES
Mach number: 0.5.
Angle of attack (AoA): -40 deg, and angle of sideslip (AoS): 0 deg.
Reynolds number: 600000. Reference length 1.0014.
No restart solution, use the values at infinity (freestream).
Dimensional simulation.
The reference area will be computed using y(2D) or z(3D) projection.
The semi-span will be computed using the max y(3D) value.
The reference length is 1.0014 m.
Reference origin for moment evaluation is (0, 0, 0).
Surface(s) where the force coefficients are evaluated: blade1.

Surface(s) plotted in the output file: blade1.
Surface(s) to be analyzed in detail: inlet, outlet, blade1.
Input mesh file name: cascade2D_databladeVALIDATION_Blade_14.su2

--------------- Space Numerical Integration ( Zone 0 ) ------------------
Jameson-Schmidt-Turkel scheme (2nd order in space) for the flow inviscid terms.
JST viscous coefficients (2nd & 4th): 0.5, 0.02.
The method includes a grid stretching correction (p = 0.3).
Scalar upwind solver for the turbulence model.
First order integration in space.
Average of gradients with correction (viscous flow terms).
Average of gradients with correction (viscous turbulence terms).
Gradient for upwind reconstruction: inverse-distance weighted Least-Squares.
Gradient for viscous and source terms: inverse-distance weighted Least-Squares.

--------------- Time Numerical Integration  ( Zone 0 ) ------------------
Local time stepping (steady state simulation).
Euler implicit method for the flow equations.
FGMRES is used for solving the linear system.
Using a LU-SGS preconditioning.
Convergence criteria of the linear solver: 0.0001.
Max number of linear iterations: 10.
V Multigrid Cycle, with 3 multigrid levels.
Damping factor for the residual restriction: 0.75.
Damping factor for the correction prolongation: 0.75.
CFL adaptation. Factor down: 0.1, factor up: 1.2,
                lower limit: 0.1, upper limit: 100,
                acceptable linear residual: 0.001.
+-------------------------------------------+
|  MG Level| Presmooth|PostSmooth|CorrectSmo|
+-------------------------------------------+
|         0|         1|         0|         1|
|         1|         2|         2|         2|
|         2|         3|         3|         3|
|         3|         3|         0|         0|
+-------------------------------------------+
Courant-Friedrichs-Lewy number:       12
Euler implicit time integration for the turbulence model.

------------------ Convergence Criteria  ( Zone 0 ) ---------------------
Maximum number of solver subiterations: 7000.
Begin convergence monitoring at iteration 500.
Residual minimum value: 1e-7.
Cauchy series min. value: 1e-10.
Number of Cauchy elements: 100.
Begin windowed time average at iteration 0.

-------------------- Output Information ( Zone 0 ) ----------------------
File writing frequency: 
+------------------------------------+
|                     File| Frequency|
+------------------------------------+
|                  RESTART|        50|
|                 PARAVIEW|        50|
|         SURFACE_PARAVIEW|        50|
|                      CSV|        50|
|              SURFACE_CSV|        50|
+------------------------------------+
Writing the convergence history file every 1 inner iterations.
Writing the screen convergence history every 10 inner iterations.
The tabular file format is CSV (.csv).
Convergence history file name: history_databladeVALIDATION_Blade_14.
Forces breakdown file name: forces_breakdown.dat.
Surface file name: surface_flowdatabladeVALIDATION_Blade_14.
Volume file name: volume_flow_databladeVALIDATION_Blade_14.
Restart file name: restart_flow_databladeVALIDATION_Blade_14.dat.

------------- Config File Boundary Information ( Zone 0 ) ---------------
+-----------------------------------------------------------------------+
|                        Marker Type|                        Marker Name|
+-----------------------------------------------------------------------+
|                  Periodic boundary|               symmetricWallsBOTTOM|
|                                   |                  symmetricWallsTOP|
+-----------------------------------------------------------------------+
|                     Inlet boundary|                              inlet|
+-----------------------------------------------------------------------+
|                    Outlet boundary|                             outlet|
+-----------------------------------------------------------------------+
|                     Heat flux wall|                             blade1|
|                                   |                             blade2|
+-----------------------------------------------------------------------+

-------------------- Output Preprocessing ( Zone 0 ) --------------------
  Info: Ignoring the following screen output fields:
  LINSOL_ITER_TRANS, LINSOL_RESIDUAL_TRANS
Screen output fields: INNER_ITER, WALL_TIME, RMS_DENSITY
  Info: Ignoring the following history output groups:
  RMS_TKE, RMS_DISSIPATION
History output group(s): INNER_ITER, WALL_TIME, RMS_DENSITY, RMS_MOMENTUM-X, RMS_ENERGY, LINSOL, CFL_NUMBER, FLOW_COEFF_SURF, AERO_COEFF_SURF
Convergence field(s): RMS_DENSITY
Warning: No (valid) fields chosen for time convergence monitoring. Time convergence monitoring inactive.
Volume output fields: COORDINATES, SOLUTION, PRIMITIVE, RESIDUAL, TIMESTEP, MESH_QUALITY, VORTEX_IDENTIFICATION

------------------- Geometry Preprocessing ( Zone 0 ) -------------------
Two dimensional problem.
61418 grid points before partitioning.
92321 volume elements before partitioning.
5 surface markers.
26 boundary elements in index 0 (Marker = inlet).
383 boundary elements in index 1 (Marker = symmetricWallsBOTTOM).
383 boundary elements in index 2 (Marker = symmetricWallsTOP).
73 boundary elements in index 3 (Marker = outlet).
1186 boundary elements in index 4 (Marker = blade1).
Executing the partitioning functions.
Building the graph adjacency structure.
Calling ParMETIS... graph partitioning complete (1355 edge cuts).
Distributing ParMETIS coloring.
Rebalancing vertices.
Rebalancing volume element connectivity.
Rebalancing markers and surface elements.
63096 vertices including ghost points. 
93665 interior elements including halo cells. 
64891 triangles.
28774 quadrilaterals.
Establishing MPI communication patterns.
Setting point connectivity.
Renumbering points (Reverse Cuthill McKee Ordering).
Recomputing point connectivity.
Setting element connectivity.
Checking the numerical grid orientation.
All volume elements are correctly orientend.
There has been a re-orientation of 1012 LINE surface elements.
Identifying edges and vertices.
Setting the control volume structure.
Area of the computational grid: 3.36165.
Searching for the closest normal neighbors to the surfaces.
Storing a mapping from global to local point index.
Compute the surface curvature.
Max K: 140.149. Mean K: 3.89058. Standard deviation K: 13.9016.
Checking for periodicity.
WARNING: Periodicity has been detected. Disabling multigrid. 
Computing mesh quality statistics for the dual control volumes.
+--------------------------------------------------------------+
|           Mesh Quality Metric|        Minimum|        Maximum|
+--------------------------------------------------------------+
|    Orthogonality Angle (deg.)|        46.0807|        89.9999|
|     CV Face Area Aspect Ratio|        1.00011|        290.215|
|           CV Sub-Volume Ratio|              1|        24.6631|
+--------------------------------------------------------------+
Finding max control volume width.
Communicating number of neighbors.
Reference length = 1.02127 m.
Wetted area = 2.9512 m.
Area projection in the x-plane = 0.896401 m, y-plane = 1.02127 m.
Max. coordinate in the x-direction = 1.01342 m, y-direction = 0.578706 m.
Min. coordinate in the x-direction = -0.00787529 m, y-direction = -0.300564 m.
Matching the periodic boundary points for marker pair 1.
 Matched 768 points with a max distance of: 9.86351e-14.
Computing wall distances.

-------------------- Solver Preprocessing ( Zone 0 ) --------------------
Viscous flow: Computing pressure using the ideal gas law
based on the free-stream temperature and a density computed
from the Reynolds number.
Force coefficients computed using free-stream values.

-- Models:
+------------------------------------------------------------------------------+
|          Viscosity Model|        Conductivity Model|              Fluid Model|
+------------------------------------------------------------------------------+
|               SUTHERLAND|          CONSTANT_PRANDTL|                IDEAL_GAS|
+------------------------------------------------------------------------------+
-- Fluid properties:
+------------------------------------------------------------------------------+
|                  Name|    Dim. value|    Ref. value|      Unit|Non-dim. value|
+------------------------------------------------------------------------------+
|        Ref. Viscosity|     1.716e-05|             1|   N.s/m^2|     1.716e-05|
|      Sutherland Temp.|        273.15|             1|         K|        273.15|
|     Sutherland Const.|         110.4|             1|         K|         110.4|
+------------------------------------------------------------------------------+
|        Prandtl (Lam.)|             -|             -|         -|          0.72|
|       Prandtl (Turb.)|             -|             -|         -|           0.9|
+------------------------------------------------------------------------------+
|          Gas Constant|       287.058|             1|  N.m/kg.K|       287.058|
|      Spec. Heat Ratio|             -|             -|         -|           1.4|
+------------------------------------------------------------------------------+
-- Initial and free-stream conditions:
+------------------------------------------------------------------------------+
|                  Name|    Dim. value|    Ref. value|      Unit|Non-dim. value|
+------------------------------------------------------------------------------+
|       Static Pressure|       5486.12|             1|        Pa|       5486.12|
|               Density|     0.0637052|             1|    kg/m^3|     0.0637052|
|           Temperature|           300|             1|         K|           300|
|          Total Energy|        230364|             1|   m^2/s^2|        230364|
|            Velocity-X|       132.994|             1|       m/s|       132.994|
|            Velocity-Y|      -111.596|             1|       m/s|      -111.596|
|    Velocity Magnitude|       173.612|             1|       m/s|       173.612|
+------------------------------------------------------------------------------+
|             Viscosity|   1.84592e-05|             1|   N.s/m^2|   1.84592e-05|
|          Conductivity|             -|             1|   W/m^2.K|             -|
|     Turb. Kin. Energy|       55.3843|             1|   m^2/s^2|       55.3843|
|     Spec. Dissipation|   1.91139e+06|             1|       1/s|   1.91139e+06|
+------------------------------------------------------------------------------+
|           Mach Number|             -|             -|         -|           0.5|
|       Reynolds Number|             -|             -|         -|        600000|
+------------------------------------------------------------------------------+
Initialize Jacobian structure (Navier-Stokes). MG level: 0.
Initialize Jacobian structure (SA model).

------------------- Numerics Preprocessing ( Zone 0 ) -------------------

----------------- Integration Preprocessing ( Zone 0 ) ------------------

------------------- Iteration Preprocessing ( Zone 0 ) ------------------
Euler/Navier-Stokes/RANS fluid iteration.

------------------------------ Begin Solver -----------------------------

Simulation Run using the Single-zone Driver
WARNING: SU2 was not compiled for an AVX-capable architecture. Performance could be better,
         see https://su2code.github.io/docs_v7/Build-SU2-Linux-MacOS/#compiler-optimizations
+--------------------------------------+
|  Inner_Iter|   Time(sec)|    rms[Rho]|
+--------------------------------------+
|           0|  8.1470e-02|   -2.477434|
|          10|  1.0920e-01|   -3.118848|
|          20|  9.2845e-02|   -2.925087|
|          30|  8.4392e-02|   -2.957929|
|          40|  8.0971e-02|   -2.811108|
|          50|  8.0850e-02|   -3.023916|
+-----------------------------------------------------------------------+
|        File Writing Summary       |              Filename             |
+-----------------------------------------------------------------------+
|SU2 binary restart                 |restart_flow_databladeVALIDATION_Blade_14.dat|
|                                   |                     (47.6599 MB/s)|
|Paraview                           |volume_flow_databladeVALIDATION_Blade_14.vtu|
|                                   |                     (188.476 MB/s)|
|Paraview surface                   |surface_flowdatabladeVALIDATION_Blade_14.vtu|
|                                   |                      (94.774 MB/s)|
|SU2 ASCII restart                  |restart_flow_databladeVALIDATION_Blade_14.csv|
|                                   |                     (20.9562 MB/s)|
|CSV file                           |surface_flowdatabladeVALIDATION_Blade_14.csv|
|                                   |                     (16.7255 MB/s)|
+-----------------------------------------------------------------------+
+--------------------------------------+
|  Inner_Iter|   Time(sec)|    rms[Rho]|
+--------------------------------------+
|          60|  1.3483e-01|   -3.116045|
|          70|  1.2475e-01|   -3.134023|
|          80|  1.1842e-01|   -2.935074|
|          90|  1.1742e-01|   -2.967752|
|         100|  1.1300e-01|   -3.048956|
+-----------------------------------------------------------------------+
|        File Writing Summary       |              Filename             |
+-----------------------------------------------------------------------+
|SU2 binary restart                 |restart_flow_databladeVALIDATION_Blade_14.dat|
|                                   |                     (1867.87 MB/s)|
|Paraview                           |volume_flow_databladeVALIDATION_Blade_14.vtu|
|                                   |                     (924.172 MB/s)|
|Paraview surface                   |surface_flowdatabladeVALIDATION_Blade_14.vtu|
|                                   |                     (85.1743 MB/s)|
|SU2 ASCII restart                  |restart_flow_databladeVALIDATION_Blade_14.csv|
|                                   |                     (20.5452 MB/s)|
|CSV file                           |surface_flowdatabladeVALIDATION_Blade_14.csv|
|                                   |                     (19.2857 MB/s)|
+-----------------------------------------------------------------------+
+--------------------------------------+
|  Inner_Iter|   Time(sec)|    rms[Rho]|
+--------------------------------------+
|         110|  1.3127e-01|   -3.040190|
|         120|  1.2579e-01|   -3.047468|
|         130|  1.2071e-01|   -3.120135|
|         140|  1.1675e-01|   -3.148372|
|         150|  1.1600e-01|   -3.149812|
+-----------------------------------------------------------------------+
|        File Writing Summary       |              Filename             |
+-----------------------------------------------------------------------+
|SU2 binary restart                 |restart_flow_databladeVALIDATION_Blade_14.dat|
|                                   |                     (11545.8 MB/s)|
|Paraview                           |volume_flow_databladeVALIDATION_Blade_14.vtu|
|                                   |                     (937.205 MB/s)|
|Paraview surface                   |surface_flowdatabladeVALIDATION_Blade_14.vtu|
|                                   |                     (90.3316 MB/s)|
|SU2 ASCII restart                  |restart_flow_databladeVALIDATION_Blade_14.csv|
|                                   |                     (20.8414 MB/s)|
|CSV file                           |surface_flowdatabladeVALIDATION_Blade_14.csv|
|                                   |                     (19.8112 MB/s)|
+-----------------------------------------------------------------------+
+--------------------------------------+
|  Inner_Iter|   Time(sec)|    rms[Rho]|
+--------------------------------------+
|         160|  1.2734e-01|   -3.243204|
|         170|  1.2359e-01|   -3.309444|
|         180|  1.2085e-01|   -3.245452|
|         190|  1.1860e-01|   -3.204126|
|         200|  1.1883e-01|   -3.248586|
+-----------------------------------------------------------------------+
|        File Writing Summary       |              Filename             |
+-----------------------------------------------------------------------+
|SU2 binary restart                 |restart_flow_databladeVALIDATION_Blade_14.dat|
|                                   |                     (3286.88 MB/s)|
|Paraview                           |volume_flow_databladeVALIDATION_Blade_14.vtu|
|                                   |                     (572.352 MB/s)|
|Paraview surface                   |surface_flowdatabladeVALIDATION_Blade_14.vtu|
|                                   |                     (79.7453 MB/s)|
|SU2 ASCII restart                  |restart_flow_databladeVALIDATION_Blade_14.csv|
|                                   |                     (19.7386 MB/s)|
|CSV file                           |surface_flowdatabladeVALIDATION_Blade_14.csv|
|                                   |                     (20.1702 MB/s)|
+-----------------------------------------------------------------------+
+--------------------------------------+
|  Inner_Iter|   Time(sec)|    rms[Rho]|
+--------------------------------------+
|         210|  1.2884e-01|   -3.176495|
|         220|  1.2607e-01|   -3.200864|
|         230|  1.2345e-01|   -3.354310|
|         240|  1.2069e-01|   -3.392691|
|         250|  1.1845e-01|   -3.273735|
+-----------------------------------------------------------------------+
|        File Writing Summary       |              Filename             |
+-----------------------------------------------------------------------+
|SU2 binary restart                 |restart_flow_databladeVALIDATION_Blade_14.dat|
|                                   |                     (5042.15 MB/s)|
|Paraview                           |volume_flow_databladeVALIDATION_Blade_14.vtu|
|                                   |                      (971.69 MB/s)|
|Paraview surface                   |surface_flowdatabladeVALIDATION_Blade_14.vtu|
|                                   |                     (85.7164 MB/s)|
|SU2 ASCII restart                  |restart_flow_databladeVALIDATION_Blade_14.csv|
|                                   |                     (21.8315 MB/s)|
|CSV file                           |surface_flowdatabladeVALIDATION_Blade_14.csv|
|                                   |                     (19.6652 MB/s)|
+-----------------------------------------------------------------------+
+--------------------------------------+
|  Inner_Iter|   Time(sec)|    rms[Rho]|
+--------------------------------------+
|         260|  1.2535e-01|   -3.213573|
|         270|  1.2299e-01|   -3.374632|
|         280|  1.2095e-01|   -3.388365|
|         290|  1.1923e-01|   -3.309239|
|         300|  1.1760e-01|   -3.446679|
+-----------------------------------------------------------------------+
|        File Writing Summary       |              Filename             |
+-----------------------------------------------------------------------+
|SU2 binary restart                 |restart_flow_databladeVALIDATION_Blade_14.dat|
|                                   |                     (2819.99 MB/s)|
|Paraview                           |volume_flow_databladeVALIDATION_Blade_14.vtu|
|                                   |                     (941.977 MB/s)|
|Paraview surface                   |surface_flowdatabladeVALIDATION_Blade_14.vtu|
|                                   |                     (88.5401 MB/s)|
|SU2 ASCII restart                  |restart_flow_databladeVALIDATION_Blade_14.csv|
|                                   |                     (21.0803 MB/s)|
|CSV file                           |surface_flowdatabladeVALIDATION_Blade_14.csv|
|                                   |                     (19.7083 MB/s)|
+-----------------------------------------------------------------------+
+--------------------------------------+
|  Inner_Iter|   Time(sec)|    rms[Rho]|
+--------------------------------------+
|         310|  1.2342e-01|   -3.397835|
|         320|  1.2170e-01|   -3.337568|
|         330|  1.1999e-01|   -3.463205|
|         340|  1.1840e-01|   -3.538742|
|         350|  1.1706e-01|   -3.446770|
+-----------------------------------------------------------------------+
|        File Writing Summary       |              Filename             |
+-----------------------------------------------------------------------+
|SU2 binary restart                 |restart_flow_databladeVALIDATION_Blade_14.dat|
|                                   |                     (11606.9 MB/s)|
|Paraview                           |volume_flow_databladeVALIDATION_Blade_14.vtu|
|                                   |                     (901.449 MB/s)|
|Paraview surface                   |surface_flowdatabladeVALIDATION_Blade_14.vtu|
|                                   |                     (91.8108 MB/s)|
|SU2 ASCII restart                  |restart_flow_databladeVALIDATION_Blade_14.csv|
|                                   |                     (21.1018 MB/s)|
|CSV file                           |surface_flowdatabladeVALIDATION_Blade_14.csv|
|                                   |                        (20.7 MB/s)|
+-----------------------------------------------------------------------+
+--------------------------------------+
|  Inner_Iter|   Time(sec)|    rms[Rho]|
+--------------------------------------+
|         360|  1.2247e-01|   -3.465210|
|         370|  1.2078e-01|   -3.614463|
|         380|  1.1952e-01|   -3.621023|
|         390|  1.1826e-01|   -3.582901|
|         400|  1.1705e-01|   -3.637531|
+-----------------------------------------------------------------------+
|        File Writing Summary       |              Filename             |
+-----------------------------------------------------------------------+
|SU2 binary restart                 |restart_flow_databladeVALIDATION_Blade_14.dat|
|                                   |                     (6012.25 MB/s)|
|Paraview                           |volume_flow_databladeVALIDATION_Blade_14.vtu|
|                                   |                     (569.694 MB/s)|
|Paraview surface                   |surface_flowdatabladeVALIDATION_Blade_14.vtu|
|                                   |                     (56.0053 MB/s)|
|SU2 ASCII restart                  |restart_flow_databladeVALIDATION_Blade_14.csv|
|                                   |                     (21.1086 MB/s)|
|CSV file                           |surface_flowdatabladeVALIDATION_Blade_14.csv|
|                                   |                     (20.9712 MB/s)|
+-----------------------------------------------------------------------+
+--------------------------------------+
|  Inner_Iter|   Time(sec)|    rms[Rho]|
+--------------------------------------+
|         410|  1.2153e-01|   -3.714931|
|         420|  1.2031e-01|   -3.653119|
|         430|  1.1923e-01|   -3.552904|
|         440|  1.1823e-01|   -3.647573|
|         450|  1.1703e-01|   -3.665440|
+-----------------------------------------------------------------------+
|        File Writing Summary       |              Filename             |
+-----------------------------------------------------------------------+
|SU2 binary restart                 |restart_flow_databladeVALIDATION_Blade_14.dat|
|                                   |                     (10596.6 MB/s)|
|Paraview                           |volume_flow_databladeVALIDATION_Blade_14.vtu|
|                                   |                     (846.226 MB/s)|
|Paraview surface                   |surface_flowdatabladeVALIDATION_Blade_14.vtu|
|                                   |                     (84.3666 MB/s)|
|SU2 ASCII restart                  |restart_flow_databladeVALIDATION_Blade_14.csv|
|                                   |                     (21.5202 MB/s)|
|CSV file                           |surface_flowdatabladeVALIDATION_Blade_14.csv|
|                                   |                     (19.0678 MB/s)|
+-----------------------------------------------------------------------+
+--------------------------------------+
|  Inner_Iter|   Time(sec)|    rms[Rho]|
+--------------------------------------+
|         460|  1.2090e-01|   -3.522325|
|         470|  1.1982e-01|   -3.507759|
|         480|  1.1854e-01|   -3.589709|
|         490|  1.1744e-01|   -3.468449|
|         500|  1.1645e-01|   -3.350093|
+-----------------------------------------------------------------------+
|        File Writing Summary       |              Filename             |
+-----------------------------------------------------------------------+
|SU2 binary restart                 |restart_flow_databladeVALIDATION_Blade_14.dat|
|                                   |                     (12353.6 MB/s)|
|Paraview                           |volume_flow_databladeVALIDATION_Blade_14.vtu|
|                                   |                      (881.14 MB/s)|
|Paraview surface                   |surface_flowdatabladeVALIDATION_Blade_14.vtu|
|                                   |                     (99.1879 MB/s)|
|SU2 ASCII restart                  |restart_flow_databladeVALIDATION_Blade_14.csv|
|                                   |                     (21.5336 MB/s)|
|CSV file                           |surface_flowdatabladeVALIDATION_Blade_14.csv|
|                                   |                      (20.567 MB/s)|
+-----------------------------------------------------------------------+
+--------------------------------------+
|  Inner_Iter|   Time(sec)|    rms[Rho]|
+--------------------------------------+
|         510|  1.1993e-01|   -3.464268|
|         520|  1.1840e-01|   -3.365116|
|         530|  1.1694e-01|   -3.483021|
|         540|  1.1595e-01|   -3.497212|
|         550|  1.1486e-01|   -3.586989|
+-----------------------------------------------------------------------+
|        File Writing Summary       |              Filename             |
+-----------------------------------------------------------------------+
|SU2 binary restart                 |restart_flow_databladeVALIDATION_Blade_14.dat|
|                                   |                     (13257.9 MB/s)|
|Paraview                           |volume_flow_databladeVALIDATION_Blade_14.vtu|
|                                   |                     (1087.07 MB/s)|
|Paraview surface                   |surface_flowdatabladeVALIDATION_Blade_14.vtu|
|                                   |                     (83.5769 MB/s)|
|SU2 ASCII restart                  |restart_flow_databladeVALIDATION_Blade_14.csv|
|                                   |                     (21.7873 MB/s)|
|CSV file                           |surface_flowdatabladeVALIDATION_Blade_14.csv|
|                                   |                     (19.9898 MB/s)|
+-----------------------------------------------------------------------+
+--------------------------------------+
|  Inner_Iter|   Time(sec)|    rms[Rho]|
+--------------------------------------+
|         560|  1.1798e-01|   -3.477375|
|         570|  1.1707e-01|   -3.462343|
|         580|  1.1620e-01|   -3.630778|
|         590|  1.1523e-01|   -3.652706|
|         600|  1.1453e-01|   -3.479115|
+-----------------------------------------------------------------------+
|        File Writing Summary       |              Filename             |
+-----------------------------------------------------------------------+
|SU2 binary restart                 |restart_flow_databladeVALIDATION_Blade_14.dat|
|                                   |                     (12188.4 MB/s)|
|Paraview                           |volume_flow_databladeVALIDATION_Blade_14.vtu|
|                                   |                     (486.719 MB/s)|
|Paraview surface                   |surface_flowdatabladeVALIDATION_Blade_14.vtu|
|                                   |                     (27.4852 MB/s)|
|SU2 ASCII restart                  |restart_flow_databladeVALIDATION_Blade_14.csv|
|                                   |                     (21.0219 MB/s)|
|CSV file                           |surface_flowdatabladeVALIDATION_Blade_14.csv|
|                                   |                     (18.3519 MB/s)|
+-----------------------------------------------------------------------+
+--------------------------------------+
|  Inner_Iter|   Time(sec)|    rms[Rho]|
+--------------------------------------+
|         610|  1.1766e-01|   -3.607854|
|         620|  1.1671e-01|   -3.764805|
|         630|  1.1586e-01|   -3.662606|
|         640|  1.1516e-01|   -3.567522|
|         650|  1.1436e-01|   -3.784980|
+-----------------------------------------------------------------------+
|        File Writing Summary       |              Filename             |
+-----------------------------------------------------------------------+
|SU2 binary restart                 |restart_flow_databladeVALIDATION_Blade_14.dat|
|                                   |                     (3793.64 MB/s)|
|Paraview                           |volume_flow_databladeVALIDATION_Blade_14.vtu|
|                                   |                     (1084.59 MB/s)|
|Paraview surface                   |surface_flowdatabladeVALIDATION_Blade_14.vtu|
|                                   |                     (105.939 MB/s)|
|SU2 ASCII restart                  |restart_flow_databladeVALIDATION_Blade_14.csv|
|                                   |                     (21.3921 MB/s)|
|CSV file                           |surface_flowdatabladeVALIDATION_Blade_14.csv|
|                                   |                     (22.0124 MB/s)|
+-----------------------------------------------------------------------+
+--------------------------------------+
|  Inner_Iter|   Time(sec)|    rms[Rho]|
+--------------------------------------+
|         660|  1.1710e-01|   -3.820392|
|         670|  1.1638e-01|   -3.661932|
|         680|  1.1574e-01|   -3.721392|
|         690|  1.1494e-01|   -3.864722|
|         700|  1.1423e-01|   -3.761134|
+-----------------------------------------------------------------------+
|        File Writing Summary       |              Filename             |
+-----------------------------------------------------------------------+
|SU2 binary restart                 |restart_flow_databladeVALIDATION_Blade_14.dat|
|                                   |                       (14836 MB/s)|
|Paraview                           |volume_flow_databladeVALIDATION_Blade_14.vtu|
|                                   |                     (1043.43 MB/s)|
|Paraview surface                   |surface_flowdatabladeVALIDATION_Blade_14.vtu|
|                                   |                     (98.9314 MB/s)|
|SU2 ASCII restart                  |restart_flow_databladeVALIDATION_Blade_14.csv|
|                                   |                      (21.725 MB/s)|
|CSV file                           |surface_flowdatabladeVALIDATION_Blade_14.csv|
|                                   |                     (20.3576 MB/s)|
+-----------------------------------------------------------------------+
+--------------------------------------+
|  Inner_Iter|   Time(sec)|    rms[Rho]|
+--------------------------------------+
|         710|  1.1677e-01|   -3.751420|
|         720|  1.1604e-01|   -3.935546|
|         730|  1.1527e-01|   -4.006772|
|         740|  1.1468e-01|   -3.815034|
|         750|  1.1410e-01|   -3.853873|
+-----------------------------------------------------------------------+
|        File Writing Summary       |              Filename             |
+-----------------------------------------------------------------------+
|SU2 binary restart                 |restart_flow_databladeVALIDATION_Blade_14.dat|
|                                   |                     (12219.6 MB/s)|
|Paraview                           |volume_flow_databladeVALIDATION_Blade_14.vtu|
|                                   |                     (977.692 MB/s)|
|Paraview surface                   |surface_flowdatabladeVALIDATION_Blade_14.vtu|
|                                   |                     (80.6389 MB/s)|
|SU2 ASCII restart                  |restart_flow_databladeVALIDATION_Blade_14.csv|
|                                   |                     (21.3696 MB/s)|
|CSV file                           |surface_flowdatabladeVALIDATION_Blade_14.csv|
|                                   |                     (19.6346 MB/s)|
+-----------------------------------------------------------------------+
+--------------------------------------+
|  Inner_Iter|   Time(sec)|    rms[Rho]|
+--------------------------------------+
|         760|  1.1643e-01|   -4.076509|
|         770|  1.1574e-01|   -4.074222|
|         780|  1.1510e-01|   -4.000048|
|         790|  1.1451e-01|   -4.058526|
|         800|  1.1382e-01|   -4.154956|
+-----------------------------------------------------------------------+
|        File Writing Summary       |              Filename             |
+-----------------------------------------------------------------------+
|SU2 binary restart                 |restart_flow_databladeVALIDATION_Blade_14.dat|
|                                   |                     (12437.8 MB/s)|
|Paraview                           |volume_flow_databladeVALIDATION_Blade_14.vtu|
|                                   |                     (967.239 MB/s)|
|Paraview surface                   |surface_flowdatabladeVALIDATION_Blade_14.vtu|
|                                   |                     (97.7719 MB/s)|
|SU2 ASCII restart                  |restart_flow_databladeVALIDATION_Blade_14.csv|
|                                   |                     (21.4631 MB/s)|
|CSV file                           |surface_flowdatabladeVALIDATION_Blade_14.csv|
|                                   |                     (19.9151 MB/s)|
+-----------------------------------------------------------------------+
+--------------------------------------+
|  Inner_Iter|   Time(sec)|    rms[Rho]|
+--------------------------------------+
|         810|  1.1621e-01|   -4.058480|
|         820|  1.1574e-01|   -4.074342|
|         830|  1.1523e-01|   -4.239206|
|         840|  1.1488e-01|   -4.185629|
|         850|  1.1446e-01|   -4.179006|
+-----------------------------------------------------------------------+
|        File Writing Summary       |              Filename             |
+-----------------------------------------------------------------------+
|SU2 binary restart                 |restart_flow_databladeVALIDATION_Blade_14.dat|
|                                   |                     (12918.1 MB/s)|
|Paraview                           |volume_flow_databladeVALIDATION_Blade_14.vtu|
|                                   |                     (1030.05 MB/s)|
|Paraview surface                   |surface_flowdatabladeVALIDATION_Blade_14.vtu|
|                                   |                     (102.599 MB/s)|
|SU2 ASCII restart                  |restart_flow_databladeVALIDATION_Blade_14.csv|
|                                   |                     (21.4582 MB/s)|
|CSV file                           |surface_flowdatabladeVALIDATION_Blade_14.csv|
|                                   |                      (19.543 MB/s)|
+-----------------------------------------------------------------------+
+--------------------------------------+
|  Inner_Iter|   Time(sec)|    rms[Rho]|
+--------------------------------------+
|         860|  1.1663e-01|   -4.176064|
|         870|  1.1607e-01|   -4.211112|
|         880|  1.1551e-01|   -4.160184|
|         890|  1.1508e-01|   -4.105547|
|         900|  1.1460e-01|   -4.164056|
+-----------------------------------------------------------------------+
|        File Writing Summary       |              Filename             |
+-----------------------------------------------------------------------+
|SU2 binary restart                 |restart_flow_databladeVALIDATION_Blade_14.dat|
|                                   |                     (12569.8 MB/s)|
|Paraview                           |volume_flow_databladeVALIDATION_Blade_14.vtu|
|                                   |                     (896.635 MB/s)|
|Paraview surface                   |surface_flowdatabladeVALIDATION_Blade_14.vtu|
|                                   |                     (91.8773 MB/s)|
|SU2 ASCII restart                  |restart_flow_databladeVALIDATION_Blade_14.csv|
|                                   |                     (21.3311 MB/s)|
|CSV file                           |surface_flowdatabladeVALIDATION_Blade_14.csv|
|                                   |                     (20.9106 MB/s)|
+-----------------------------------------------------------------------+
+--------------------------------------+
|  Inner_Iter|   Time(sec)|    rms[Rho]|
+--------------------------------------+
|         910|  1.1671e-01|   -4.050568|
|         920|  1.1616e-01|   -4.145871|
|         930|  1.1563e-01|   -4.147046|
|         940|  1.1533e-01|   -4.085946|
|         950|  1.1476e-01|   -4.322078|
+-----------------------------------------------------------------------+
|        File Writing Summary       |              Filename             |
+-----------------------------------------------------------------------+
|SU2 binary restart                 |restart_flow_databladeVALIDATION_Blade_14.dat|
|                                   |                     (12486.7 MB/s)|
|Paraview                           |volume_flow_databladeVALIDATION_Blade_14.vtu|
|                                   |                     (813.824 MB/s)|
|Paraview surface                   |surface_flowdatabladeVALIDATION_Blade_14.vtu|
|                                   |                     (72.0714 MB/s)|
|SU2 ASCII restart                  |restart_flow_databladeVALIDATION_Blade_14.csv|
|                                   |                     (20.7168 MB/s)|
|CSV file                           |surface_flowdatabladeVALIDATION_Blade_14.csv|
|                                   |                     (18.7073 MB/s)|
+-----------------------------------------------------------------------+
+--------------------------------------+
|  Inner_Iter|   Time(sec)|    rms[Rho]|
+--------------------------------------+
|         960|  1.1679e-01|   -4.157374|
|         970|  1.1638e-01|   -4.096834|
|         980|  1.1590e-01|   -4.292407|
|         990|  1.1537e-01|   -4.195430|
|        1000|  1.1491e-01|   -4.206664|
+-----------------------------------------------------------------------+
|        File Writing Summary       |              Filename             |
+-----------------------------------------------------------------------+
|SU2 binary restart                 |restart_flow_databladeVALIDATION_Blade_14.dat|
|                                   |                     (12786.7 MB/s)|
|Paraview                           |volume_flow_databladeVALIDATION_Blade_14.vtu|
|                                   |                      (966.58 MB/s)|
|Paraview surface                   |surface_flowdatabladeVALIDATION_Blade_14.vtu|
|                                   |                     (99.0371 MB/s)|
|SU2 ASCII restart                  |restart_flow_databladeVALIDATION_Blade_14.csv|
|                                   |                     (21.2194 MB/s)|
|CSV file                           |surface_flowdatabladeVALIDATION_Blade_14.csv|
|                                   |                     (19.7606 MB/s)|
+-----------------------------------------------------------------------+
+--------------------------------------+
|  Inner_Iter|   Time(sec)|    rms[Rho]|
+--------------------------------------+
|        1010|  1.1676e-01|   -4.371674|
|        1020|  1.1627e-01|   -4.250030|
|        1030|  1.1580e-01|   -4.244887|
|        1040|  1.1530e-01|   -4.420431|
|        1050|  1.1478e-01|   -4.504087|
+-----------------------------------------------------------------------+
|        File Writing Summary       |              Filename             |
+-----------------------------------------------------------------------+
|SU2 binary restart                 |restart_flow_databladeVALIDATION_Blade_14.dat|
|                                   |                     (12897.5 MB/s)|
|Paraview                           |volume_flow_databladeVALIDATION_Blade_14.vtu|
|                                   |                     (436.712 MB/s)|
|Paraview surface                   |surface_flowdatabladeVALIDATION_Blade_14.vtu|
|                                   |                     (12.8026 MB/s)|
|SU2 ASCII restart                  |restart_flow_databladeVALIDATION_Blade_14.csv|
|                                   |                     (21.8836 MB/s)|
|CSV file                           |surface_flowdatabladeVALIDATION_Blade_14.csv|
|                                   |                     (21.8826 MB/s)|
+-----------------------------------------------------------------------+
+--------------------------------------+
|  Inner_Iter|   Time(sec)|    rms[Rho]|
+--------------------------------------+
|        1060|  1.1645e-01|   -4.346723|
|        1070|  1.1601e-01|   -4.313306|
|        1080|  1.1550e-01|   -4.463947|
|        1090|  1.1504e-01|   -4.480767|
|        1100|  1.1475e-01|   -4.373249|
+-----------------------------------------------------------------------+
|        File Writing Summary       |              Filename             |
+-----------------------------------------------------------------------+
|SU2 binary restart                 |restart_flow_databladeVALIDATION_Blade_14.dat|
|                                   |                     (14161.5 MB/s)|
|Paraview                           |volume_flow_databladeVALIDATION_Blade_14.vtu|
|                                   |                     (881.211 MB/s)|
|Paraview surface                   |surface_flowdatabladeVALIDATION_Blade_14.vtu|
|                                   |                     (91.6956 MB/s)|
|SU2 ASCII restart                  |restart_flow_databladeVALIDATION_Blade_14.csv|
|                                   |                     (21.1095 MB/s)|
|CSV file                           |surface_flowdatabladeVALIDATION_Blade_14.csv|
|                                   |                     (21.6117 MB/s)|
+-----------------------------------------------------------------------+
+--------------------------------------+
|  Inner_Iter|   Time(sec)|    rms[Rho]|
+--------------------------------------+
|        1110|  1.1638e-01|   -4.636728|
|        1120|  1.1587e-01|   -4.558401|
|        1130|  1.1543e-01|   -4.375437|
|        1140|  1.1501e-01|   -4.488967|
|        1150|  1.1455e-01|   -4.688176|
+-----------------------------------------------------------------------+
|        File Writing Summary       |              Filename             |
+-----------------------------------------------------------------------+
|SU2 binary restart                 |restart_flow_databladeVALIDATION_Blade_14.dat|
|                                   |                     (11890.1 MB/s)|
|Paraview                           |volume_flow_databladeVALIDATION_Blade_14.vtu|
|                                   |                     (961.591 MB/s)|
|Paraview surface                   |surface_flowdatabladeVALIDATION_Blade_14.vtu|
|                                   |                     (113.006 MB/s)|
|SU2 ASCII restart                  |restart_flow_databladeVALIDATION_Blade_14.csv|
|                                   |                     (21.3322 MB/s)|
|CSV file                           |surface_flowdatabladeVALIDATION_Blade_14.csv|
|                                   |                     (21.0398 MB/s)|
+-----------------------------------------------------------------------+
+--------------------------------------+
|  Inner_Iter|   Time(sec)|    rms[Rho]|
+--------------------------------------+
|        1160|  1.1610e-01|   -4.620596|
|        1170|  1.1572e-01|   -4.526680|
|        1180|  1.1533e-01|   -4.676953|
|        1190|  1.1492e-01|   -4.678788|
|        1200|  1.1455e-01|   -4.645351|
+-----------------------------------------------------------------------+
|        File Writing Summary       |              Filename             |
+-----------------------------------------------------------------------+
|SU2 binary restart                 |restart_flow_databladeVALIDATION_Blade_14.dat|
|                                   |                     (10304.6 MB/s)|
|Paraview                           |volume_flow_databladeVALIDATION_Blade_14.vtu|
|                                   |                     (897.529 MB/s)|
|Paraview surface                   |surface_flowdatabladeVALIDATION_Blade_14.vtu|
|                                   |                     (117.134 MB/s)|
|SU2 ASCII restart                  |restart_flow_databladeVALIDATION_Blade_14.csv|
|                                   |                     (21.0518 MB/s)|
|CSV file                           |surface_flowdatabladeVALIDATION_Blade_14.csv|
|                                   |                     (21.3815 MB/s)|
+-----------------------------------------------------------------------+
+--------------------------------------+
|  Inner_Iter|   Time(sec)|    rms[Rho]|
+--------------------------------------+
|        1210|  1.1608e-01|   -4.787264|
|        1220|  1.1567e-01|   -4.762921|
|        1230|  1.1529e-01|   -4.723124|
|        1240|  1.1488e-01|   -4.889217|
|        1250|  1.1446e-01|   -4.899835|
+-----------------------------------------------------------------------+
|        File Writing Summary       |              Filename             |
+-----------------------------------------------------------------------+
|SU2 binary restart                 |restart_flow_databladeVALIDATION_Blade_14.dat|
|                                   |                     (12375.2 MB/s)|
|Paraview                           |volume_flow_databladeVALIDATION_Blade_14.vtu|
|                                   |                     (1063.78 MB/s)|
|Paraview surface                   |surface_flowdatabladeVALIDATION_Blade_14.vtu|
|                                   |                     (97.9109 MB/s)|
|SU2 ASCII restart                  |restart_flow_databladeVALIDATION_Blade_14.csv|
|                                   |                     (21.0226 MB/s)|
|CSV file                           |surface_flowdatabladeVALIDATION_Blade_14.csv|
|                                   |                     (20.8003 MB/s)|
+-----------------------------------------------------------------------+
+--------------------------------------+
|  Inner_Iter|   Time(sec)|    rms[Rho]|
+--------------------------------------+
|        1260|  1.1592e-01|   -4.847828|
|        1270|  1.1556e-01|   -4.871258|
|        1280|  1.1512e-01|   -5.043927|
|        1290|  1.1472e-01|   -5.038156|
|        1300|  1.1437e-01|   -4.938479|
+-----------------------------------------------------------------------+
|        File Writing Summary       |              Filename             |
+-----------------------------------------------------------------------+
|SU2 binary restart                 |restart_flow_databladeVALIDATION_Blade_14.dat|
|                                   |                     (11522.9 MB/s)|
|Paraview                           |volume_flow_databladeVALIDATION_Blade_14.vtu|
|                                   |                     (916.547 MB/s)|
|Paraview surface                   |surface_flowdatabladeVALIDATION_Blade_14.vtu|
|                                   |                     (98.9883 MB/s)|
|SU2 ASCII restart                  |restart_flow_databladeVALIDATION_Blade_14.csv|
|                                   |                     (21.5372 MB/s)|
|CSV file                           |surface_flowdatabladeVALIDATION_Blade_14.csv|
|                                   |                     (17.7426 MB/s)|
+-----------------------------------------------------------------------+
+--------------------------------------+
|  Inner_Iter|   Time(sec)|    rms[Rho]|
+--------------------------------------+
|        1310|  1.1577e-01|   -4.993473|
|        1320|  1.1536e-01|   -5.055159|
|        1330|  1.1497e-01|   -4.976451|
|        1340|  1.1463e-01|   -4.969165|
|        1350|  1.1422e-01|   -5.071521|
+-----------------------------------------------------------------------+
|        File Writing Summary       |              Filename             |
+-----------------------------------------------------------------------+
|SU2 binary restart                 |restart_flow_databladeVALIDATION_Blade_14.dat|
|                                   |                     (10230.5 MB/s)|
|Paraview                           |volume_flow_databladeVALIDATION_Blade_14.vtu|
|                                   |                     (977.856 MB/s)|
|Paraview surface                   |surface_flowdatabladeVALIDATION_Blade_14.vtu|
|                                   |                     (95.1518 MB/s)|
|SU2 ASCII restart                  |restart_flow_databladeVALIDATION_Blade_14.csv|
|                                   |                     (20.8169 MB/s)|
|CSV file                           |surface_flowdatabladeVALIDATION_Blade_14.csv|
|                                   |                     (19.7284 MB/s)|
+-----------------------------------------------------------------------+
+--------------------------------------+
|  Inner_Iter|   Time(sec)|    rms[Rho]|
+--------------------------------------+
|        1360|  1.1558e-01|   -5.066705|
|        1370|  1.1523e-01|   -5.024718|
|        1380|  1.1488e-01|   -5.061837|
|        1390|  1.1447e-01|   -5.137003|
|        1400|  1.1413e-01|   -5.069217|
+-----------------------------------------------------------------------+
|        File Writing Summary       |              Filename             |
+-----------------------------------------------------------------------+
|SU2 binary restart                 |restart_flow_databladeVALIDATION_Blade_14.dat|
|                                   |                     (14115.9 MB/s)|
|Paraview                           |volume_flow_databladeVALIDATION_Blade_14.vtu|
|                                   |                     (965.156 MB/s)|
|Paraview surface                   |surface_flowdatabladeVALIDATION_Blade_14.vtu|
|                                   |                     (95.4003 MB/s)|
|SU2 ASCII restart                  |restart_flow_databladeVALIDATION_Blade_14.csv|
|                                   |                     (21.1013 MB/s)|
|CSV file                           |surface_flowdatabladeVALIDATION_Blade_14.csv|
|                                   |                     (20.4553 MB/s)|
+-----------------------------------------------------------------------+
+--------------------------------------+
|  Inner_Iter|   Time(sec)|    rms[Rho]|
+--------------------------------------+
|        1410|  1.1550e-01|   -5.052861|
|        1420|  1.1518e-01|   -5.166516|
|        1430|  1.1487e-01|   -5.171350|
|        1440|  1.1458e-01|   -5.143909|
|        1450|  1.1428e-01|   -5.200996|
+-----------------------------------------------------------------------+
|        File Writing Summary       |              Filename             |
+-----------------------------------------------------------------------+
|SU2 binary restart                 |restart_flow_databladeVALIDATION_Blade_14.dat|
|                                   |                     (4912.11 MB/s)|
|Paraview                           |volume_flow_databladeVALIDATION_Blade_14.vtu|
|                                   |                      (966.58 MB/s)|
|Paraview surface                   |surface_flowdatabladeVALIDATION_Blade_14.vtu|
|                                   |                     (106.912 MB/s)|
|SU2 ASCII restart                  |restart_flow_databladeVALIDATION_Blade_14.csv|
|                                   |                      (20.109 MB/s)|
|CSV file                           |surface_flowdatabladeVALIDATION_Blade_14.csv|
|                                   |                     (20.8823 MB/s)|
+-----------------------------------------------------------------------+
+--------------------------------------+
|  Inner_Iter|   Time(sec)|    rms[Rho]|
+--------------------------------------+
|        1460|  1.1560e-01|   -5.248365|
|        1470|  1.1542e-01|   -5.213746|
|        1480|  1.1512e-01|   -5.332966|
|        1490|  1.1489e-01|   -5.296798|
|        1500|  1.1479e-01|   -5.277313|
+-----------------------------------------------------------------------+
|        File Writing Summary       |              Filename             |
+-----------------------------------------------------------------------+
|SU2 binary restart                 |restart_flow_databladeVALIDATION_Blade_14.dat|
|                                   |                     (5287.26 MB/s)|
|Paraview                           |volume_flow_databladeVALIDATION_Blade_14.vtu|
|                                   |                      (183.25 MB/s)|
|Paraview surface                   |surface_flowdatabladeVALIDATION_Blade_14.vtu|
|                                   |                     (19.2456 MB/s)|
|SU2 ASCII restart                  |restart_flow_databladeVALIDATION_Blade_14.csv|
|                                   |                     (18.8575 MB/s)|
|CSV file                           |surface_flowdatabladeVALIDATION_Blade_14.csv|
|                                   |                     (19.2629 MB/s)|
+-----------------------------------------------------------------------+
+--------------------------------------+
|  Inner_Iter|   Time(sec)|    rms[Rho]|
+--------------------------------------+
|        1510|  1.1683e-01|   -5.362055|
|        1520|  1.1654e-01|   -5.347396|
|        1530|  1.1625e-01|   -5.280251|
|        1540|  1.1599e-01|   -5.352523|
|        1550|  1.1566e-01|   -5.402937|
+-----------------------------------------------------------------------+
|        File Writing Summary       |              Filename             |
+-----------------------------------------------------------------------+
|SU2 binary restart                 |restart_flow_databladeVALIDATION_Blade_14.dat|
|                                   |                       (12263 MB/s)|
|Paraview                           |volume_flow_databladeVALIDATION_Blade_14.vtu|
|                                   |                     (902.979 MB/s)|
|Paraview surface                   |surface_flowdatabladeVALIDATION_Blade_14.vtu|
|                                   |                     (89.2415 MB/s)|
|SU2 ASCII restart                  |restart_flow_databladeVALIDATION_Blade_14.csv|
|                                   |                     (20.8084 MB/s)|
|CSV file                           |surface_flowdatabladeVALIDATION_Blade_14.csv|
|                                   |                     (16.1939 MB/s)|
+-----------------------------------------------------------------------+
+--------------------------------------+
|  Inner_Iter|   Time(sec)|    rms[Rho]|
+--------------------------------------+
|        1560|  1.1692e-01|   -5.368589|
|        1570|  1.1662e-01|   -5.327653|
|        1580|  1.1626e-01|   -5.415783|
|        1590|  1.1601e-01|   -5.345600|
|        1600|  1.1581e-01|   -5.364577|
+-----------------------------------------------------------------------+
|        File Writing Summary       |              Filename             |
+-----------------------------------------------------------------------+
|SU2 binary restart                 |restart_flow_databladeVALIDATION_Blade_14.dat|
|                                   |                     (11887.5 MB/s)|
|Paraview                           |volume_flow_databladeVALIDATION_Blade_14.vtu|
|                                   |                     (846.887 MB/s)|
|Paraview surface                   |surface_flowdatabladeVALIDATION_Blade_14.vtu|
|                                   |                     (87.4355 MB/s)|
|SU2 ASCII restart                  |restart_flow_databladeVALIDATION_Blade_14.csv|
|                                   |                     (20.6186 MB/s)|
|CSV file                           |surface_flowdatabladeVALIDATION_Blade_14.csv|
|                                   |                     (17.0157 MB/s)|
+-----------------------------------------------------------------------+
+--------------------------------------+
|  Inner_Iter|   Time(sec)|    rms[Rho]|
+--------------------------------------+
|        1610|  1.1708e-01|   -5.423931|
|        1620|  1.1685e-01|   -5.366959|
|        1630|  1.1656e-01|   -5.414987|
|        1640|  1.1624e-01|   -5.497800|
|        1650|  1.1615e-01|   -5.438357|
+-----------------------------------------------------------------------+
|        File Writing Summary       |              Filename             |
+-----------------------------------------------------------------------+
|SU2 binary restart                 |restart_flow_databladeVALIDATION_Blade_14.dat|
|                                   |                     (3571.78 MB/s)|
|Paraview                           |volume_flow_databladeVALIDATION_Blade_14.vtu|
|                                   |                     (962.017 MB/s)|
|Paraview surface                   |surface_flowdatabladeVALIDATION_Blade_14.vtu|
|                                   |                     (43.9121 MB/s)|
|SU2 ASCII restart                  |restart_flow_databladeVALIDATION_Blade_14.csv|
|                                   |                     (19.8545 MB/s)|
|CSV file                           |surface_flowdatabladeVALIDATION_Blade_14.csv|
|                                   |                     (16.8461 MB/s)|
+-----------------------------------------------------------------------+
+--------------------------------------+
|  Inner_Iter|   Time(sec)|    rms[Rho]|
+--------------------------------------+
|        1660|  1.1735e-01|   -5.530226|
|        1670|  1.1767e-01|   -5.493004|
|        1680|  1.1744e-01|   -5.473399|
|        1690|  1.1736e-01|   -5.470803|
|        1700|  1.1709e-01|   -5.519841|
+-----------------------------------------------------------------------+
|        File Writing Summary       |              Filename             |
+-----------------------------------------------------------------------+
|SU2 binary restart                 |restart_flow_databladeVALIDATION_Blade_14.dat|
|                                   |                     (13473.6 MB/s)|
|Paraview                           |volume_flow_databladeVALIDATION_Blade_14.vtu|
|                                   |                      (825.37 MB/s)|
|Paraview surface                   |surface_flowdatabladeVALIDATION_Blade_14.vtu|
|                                   |                     (124.175 MB/s)|
|SU2 ASCII restart                  |restart_flow_databladeVALIDATION_Blade_14.csv|
|                                   |                     (20.8954 MB/s)|
|CSV file                           |surface_flowdatabladeVALIDATION_Blade_14.csv|
|                                   |                     (20.8834 MB/s)|
+-----------------------------------------------------------------------+
+--------------------------------------+
|  Inner_Iter|   Time(sec)|    rms[Rho]|
+--------------------------------------+
|        1710|  1.1826e-01|   -5.431599|
|        1720|  1.1807e-01|   -5.497071|
|        1730|  1.1784e-01|   -5.526847|
|        1740|  1.1753e-01|   -5.621962|
|        1750|  1.1725e-01|   -5.614318|
+-----------------------------------------------------------------------+
|        File Writing Summary       |              Filename             |
+-----------------------------------------------------------------------+
|SU2 binary restart                 |restart_flow_databladeVALIDATION_Blade_14.dat|
|                                   |                     (12996.7 MB/s)|
|Paraview                           |volume_flow_databladeVALIDATION_Blade_14.vtu|
|                                   |                     (962.235 MB/s)|
|Paraview surface                   |surface_flowdatabladeVALIDATION_Blade_14.vtu|
|                                   |                     (100.978 MB/s)|
|SU2 ASCII restart                  |restart_flow_databladeVALIDATION_Blade_14.csv|
|                                   |                     (21.6668 MB/s)|
|CSV file                           |surface_flowdatabladeVALIDATION_Blade_14.csv|
|                                   |                     (20.6724 MB/s)|
+-----------------------------------------------------------------------+
+--------------------------------------+
|  Inner_Iter|   Time(sec)|    rms[Rho]|
+--------------------------------------+
|        1760|  1.1826e-01|   -5.594494|
|        1770|  1.1796e-01|   -5.618559|
|        1780|  1.1762e-01|   -5.627345|
|        1790|  1.1733e-01|   -5.556866|
|        1800|  1.1707e-01|   -5.505472|
+-----------------------------------------------------------------------+
|        File Writing Summary       |              Filename             |
+-----------------------------------------------------------------------+
|SU2 binary restart                 |restart_flow_databladeVALIDATION_Blade_14.dat|
|                                   |                     (11649.4 MB/s)|
|Paraview                           |volume_flow_databladeVALIDATION_Blade_14.vtu|
|                                   |                     (991.757 MB/s)|
|Paraview surface                   |surface_flowdatabladeVALIDATION_Blade_14.vtu|
|                                   |                     (88.6118 MB/s)|
|SU2 ASCII restart                  |restart_flow_databladeVALIDATION_Blade_14.csv|
|                                   |                     (21.4125 MB/s)|
|CSV file                           |surface_flowdatabladeVALIDATION_Blade_14.csv|
|                                   |                     (21.0478 MB/s)|
+-----------------------------------------------------------------------+
+--------------------------------------+
|  Inner_Iter|   Time(sec)|    rms[Rho]|
+--------------------------------------+
|        1810|  1.1803e-01|   -5.665439|
|        1820|  1.1771e-01|   -5.703223|
|        1830|  1.1744e-01|   -5.661649|
|        1840|  1.1718e-01|   -5.667976|
|        1850|  1.1687e-01|   -5.733615|
+-----------------------------------------------------------------------+
|        File Writing Summary       |              Filename             |
+-----------------------------------------------------------------------+
|SU2 binary restart                 |restart_flow_databladeVALIDATION_Blade_14.dat|
|                                   |                     (11654.5 MB/s)|
|Paraview                           |volume_flow_databladeVALIDATION_Blade_14.vtu|
|                                   |                     (1016.19 MB/s)|
|Paraview surface                   |surface_flowdatabladeVALIDATION_Blade_14.vtu|
|                                   |                     (89.4966 MB/s)|
|SU2 ASCII restart                  |restart_flow_databladeVALIDATION_Blade_14.csv|
|                                   |                     (21.6854 MB/s)|
|CSV file                           |surface_flowdatabladeVALIDATION_Blade_14.csv|
|                                   |                      (21.178 MB/s)|
+-----------------------------------------------------------------------+
+--------------------------------------+
|  Inner_Iter|   Time(sec)|    rms[Rho]|
+--------------------------------------+
|        1860|  1.1780e-01|   -5.725054|
|        1870|  1.1756e-01|   -5.660839|
|        1880|  1.1737e-01|   -5.677074|
|        1890|  1.1717e-01|   -5.679131|
|        1900|  1.1696e-01|   -5.743235|
+-----------------------------------------------------------------------+
|        File Writing Summary       |              Filename             |
+-----------------------------------------------------------------------+
|SU2 binary restart                 |restart_flow_databladeVALIDATION_Blade_14.dat|
|                                   |                     (11318.7 MB/s)|
|Paraview                           |volume_flow_databladeVALIDATION_Blade_14.vtu|
|                                   |                     (994.797 MB/s)|
|Paraview surface                   |surface_flowdatabladeVALIDATION_Blade_14.vtu|
|                                   |                     (92.0527 MB/s)|
|SU2 ASCII restart                  |restart_flow_databladeVALIDATION_Blade_14.csv|
|                                   |                     (21.5963 MB/s)|
|CSV file                           |surface_flowdatabladeVALIDATION_Blade_14.csv|
|                                   |                     (17.9533 MB/s)|
+-----------------------------------------------------------------------+
+--------------------------------------+
|  Inner_Iter|   Time(sec)|    rms[Rho]|
+--------------------------------------+
|        1910|  1.1796e-01|   -5.742189|
|        1920|  1.1778e-01|   -5.750512|
|        1930|  1.1772e-01|   -5.762096|
|        1940|  1.1765e-01|   -5.770560|
|        1950|  1.1749e-01|   -5.823240|
+-----------------------------------------------------------------------+
|        File Writing Summary       |              Filename             |
+-----------------------------------------------------------------------+
|SU2 binary restart                 |restart_flow_databladeVALIDATION_Blade_14.dat|
|                                   |                     (10148.6 MB/s)|
|Paraview                           |volume_flow_databladeVALIDATION_Blade_14.vtu|
|                                   |                     (959.964 MB/s)|
|Paraview surface                   |surface_flowdatabladeVALIDATION_Blade_14.vtu|
|                                   |                     (87.5435 MB/s)|
|SU2 ASCII restart                  |restart_flow_databladeVALIDATION_Blade_14.csv|
|                                   |                      (20.743 MB/s)|
|CSV file                           |surface_flowdatabladeVALIDATION_Blade_14.csv|
|                                   |                     (20.3726 MB/s)|
+-----------------------------------------------------------------------+
+--------------------------------------+
|  Inner_Iter|   Time(sec)|    rms[Rho]|
+--------------------------------------+
|        1960|  1.1855e-01|   -5.880770|
|        1970|  1.1829e-01|   -5.940183|
|        1980|  1.1807e-01|   -5.929309|
|        1990|  1.1780e-01|   -5.976026|
|        2000|  1.1757e-01|   -5.932428|
+-----------------------------------------------------------------------+
|        File Writing Summary       |              Filename             |
+-----------------------------------------------------------------------+
|SU2 binary restart                 |restart_flow_databladeVALIDATION_Blade_14.dat|
|                                   |                      (9893.1 MB/s)|
|Paraview                           |volume_flow_databladeVALIDATION_Blade_14.vtu|
|                                   |                     (880.334 MB/s)|
|Paraview surface                   |surface_flowdatabladeVALIDATION_Blade_14.vtu|
|                                   |                     (85.9793 MB/s)|
|SU2 ASCII restart                  |restart_flow_databladeVALIDATION_Blade_14.csv|
|                                   |                      (21.453 MB/s)|
|CSV file                           |surface_flowdatabladeVALIDATION_Blade_14.csv|
|                                   |                     (21.4671 MB/s)|
+-----------------------------------------------------------------------+
+--------------------------------------+
|  Inner_Iter|   Time(sec)|    rms[Rho]|
+--------------------------------------+
|        2010|  1.1847e-01|   -5.899162|
|        2020|  1.1818e-01|   -5.968660|
|        2030|  1.1789e-01|   -5.986512|
|        2040|  1.1764e-01|   -5.940991|
|        2050|  1.1740e-01|   -5.974345|
+-----------------------------------------------------------------------+
|        File Writing Summary       |              Filename             |
+-----------------------------------------------------------------------+
|SU2 binary restart                 |restart_flow_databladeVALIDATION_Blade_14.dat|
|                                   |                     (11845.9 MB/s)|
|Paraview                           |volume_flow_databladeVALIDATION_Blade_14.vtu|
|                                   |                     (971.341 MB/s)|
|Paraview surface                   |surface_flowdatabladeVALIDATION_Blade_14.vtu|
|                                   |                      (99.961 MB/s)|
|SU2 ASCII restart                  |restart_flow_databladeVALIDATION_Blade_14.csv|
|                                   |                     (21.8163 MB/s)|
|CSV file                           |surface_flowdatabladeVALIDATION_Blade_14.csv|
|                                   |                     (21.6306 MB/s)|
+-----------------------------------------------------------------------+
+--------------------------------------+
|  Inner_Iter|   Time(sec)|    rms[Rho]|
+--------------------------------------+
|        2060|  1.1820e-01|   -6.071065|
|        2070|  1.1793e-01|   -6.083787|
|        2080|  1.1767e-01|   -6.076220|
|        2090|  1.1744e-01|   -6.113208|
|        2100|  1.1716e-01|   -6.147199|
+-----------------------------------------------------------------------+
|        File Writing Summary       |              Filename             |
+-----------------------------------------------------------------------+
|SU2 binary restart                 |restart_flow_databladeVALIDATION_Blade_14.dat|
|                                   |                     (9096.73 MB/s)|
|Paraview                           |volume_flow_databladeVALIDATION_Blade_14.vtu|
|                                   |                     (894.294 MB/s)|
|Paraview surface                   |surface_flowdatabladeVALIDATION_Blade_14.vtu|
|                                   |                     (88.8371 MB/s)|
|SU2 ASCII restart                  |restart_flow_databladeVALIDATION_Blade_14.csv|
|                                   |                     (21.4271 MB/s)|
|CSV file                           |surface_flowdatabladeVALIDATION_Blade_14.csv|
|                                   |                     (21.0051 MB/s)|
+-----------------------------------------------------------------------+
+--------------------------------------+
|  Inner_Iter|   Time(sec)|    rms[Rho]|
+--------------------------------------+
|        2110|  1.1802e-01|   -6.023520|
|        2120|  1.1779e-01|   -6.084161|
|        2130|  1.1750e-01|   -6.122124|
|        2140|  1.1724e-01|   -6.090337|
|        2150|  1.1702e-01|   -5.974433|
+-----------------------------------------------------------------------+
|        File Writing Summary       |              Filename             |
+-----------------------------------------------------------------------+
|SU2 binary restart                 |restart_flow_databladeVALIDATION_Blade_14.dat|
|                                   |                     (12411.2 MB/s)|
|Paraview                           |volume_flow_databladeVALIDATION_Blade_14.vtu|
|                                   |                     (970.029 MB/s)|
|Paraview surface                   |surface_flowdatabladeVALIDATION_Blade_14.vtu|
|                                   |                     (115.022 MB/s)|
|SU2 ASCII restart                  |restart_flow_databladeVALIDATION_Blade_14.csv|
|                                   |                     (20.6469 MB/s)|
|CSV file                           |surface_flowdatabladeVALIDATION_Blade_14.csv|
|                                   |                     (20.0654 MB/s)|
+-----------------------------------------------------------------------+
+--------------------------------------+
|  Inner_Iter|   Time(sec)|    rms[Rho]|
+--------------------------------------+
|        2160|  1.1789e-01|   -6.079326|
|        2170|  1.1824e-01|   -6.036657|
|        2180|  1.1800e-01|   -6.173602|
|        2190|  1.1779e-01|   -6.113645|
|        2200|  1.1758e-01|   -6.154571|
+-----------------------------------------------------------------------+
|        File Writing Summary       |              Filename             |
+-----------------------------------------------------------------------+
|SU2 binary restart                 |restart_flow_databladeVALIDATION_Blade_14.dat|
|                                   |                     (11785.6 MB/s)|
|Paraview                           |volume_flow_databladeVALIDATION_Blade_14.vtu|
|                                   |                     (1002.01 MB/s)|
|Paraview surface                   |surface_flowdatabladeVALIDATION_Blade_14.vtu|
|                                   |                     (104.132 MB/s)|
|SU2 ASCII restart                  |restart_flow_databladeVALIDATION_Blade_14.csv|
|                                   |                      (21.337 MB/s)|
|CSV file                           |surface_flowdatabladeVALIDATION_Blade_14.csv|
|                                   |                     (19.2981 MB/s)|
+-----------------------------------------------------------------------+
+--------------------------------------+
|  Inner_Iter|   Time(sec)|    rms[Rho]|
+--------------------------------------+
|        2210|  1.1838e-01|   -6.135885|
|        2220|  1.1815e-01|   -6.114201|
|        2230|  1.1793e-01|   -6.170615|
|        2240|  1.1767e-01|   -6.182262|
|        2250|  1.1745e-01|   -6.076508|
+-----------------------------------------------------------------------+
|        File Writing Summary       |              Filename             |
+-----------------------------------------------------------------------+
|SU2 binary restart                 |restart_flow_databladeVALIDATION_Blade_14.dat|
|                                   |                     (12067.9 MB/s)|
|Paraview                           |volume_flow_databladeVALIDATION_Blade_14.vtu|
|                                   |                     (920.589 MB/s)|
|Paraview surface                   |surface_flowdatabladeVALIDATION_Blade_14.vtu|
|                                   |                     (95.7831 MB/s)|
|SU2 ASCII restart                  |restart_flow_databladeVALIDATION_Blade_14.csv|
|                                   |                     (21.0161 MB/s)|
|CSV file                           |surface_flowdatabladeVALIDATION_Blade_14.csv|
|                                   |                     (19.8195 MB/s)|
+-----------------------------------------------------------------------+
+--------------------------------------+
|  Inner_Iter|   Time(sec)|    rms[Rho]|
+--------------------------------------+
|        2260|  1.1831e-01|   -6.084776|
|        2270|  1.1817e-01|   -6.107872|
|        2280|  1.1792e-01|   -6.255583|
|        2290|  1.1767e-01|   -6.269168|
|        2300|  1.1744e-01|   -6.259959|
+-----------------------------------------------------------------------+
|        File Writing Summary       |              Filename             |
+-----------------------------------------------------------------------+
|SU2 binary restart                 |restart_flow_databladeVALIDATION_Blade_14.dat|
|                                   |                     (11892.8 MB/s)|
|Paraview                           |volume_flow_databladeVALIDATION_Blade_14.vtu|
|                                   |                     (1051.86 MB/s)|
|Paraview surface                   |surface_flowdatabladeVALIDATION_Blade_14.vtu|
|                                   |                     (96.6238 MB/s)|
|SU2 ASCII restart                  |restart_flow_databladeVALIDATION_Blade_14.csv|
|                                   |                     (21.7747 MB/s)|
|CSV file                           |surface_flowdatabladeVALIDATION_Blade_14.csv|
|                                   |                     (21.7043 MB/s)|
+-----------------------------------------------------------------------+
+--------------------------------------+
|  Inner_Iter|   Time(sec)|    rms[Rho]|
+--------------------------------------+
|        2310|  1.1820e-01|   -6.285833|
|        2320|  1.1795e-01|   -6.318315|
|        2330|  1.1777e-01|   -6.234548|
|        2340|  1.1752e-01|   -6.309555|
|        2350|  1.1728e-01|   -6.325140|
+-----------------------------------------------------------------------+
|        File Writing Summary       |              Filename             |
+-----------------------------------------------------------------------+
|SU2 binary restart                 |restart_flow_databladeVALIDATION_Blade_14.dat|
|                                   |                     (12888.3 MB/s)|
|Paraview                           |volume_flow_databladeVALIDATION_Blade_14.vtu|
[...]
+-----------------------------------------------------------------------+
|        File Writing Summary       |              Filename             |
+-----------------------------------------------------------------------+
|SU2 binary restart                 |restart_flow_databladeVALIDATION_Blade_14.dat|
|                                   |                     (12427.4 MB/s)|
|Paraview                           |volume_flow_databladeVALIDATION_Blade_14.vtu|
|                                   |                     (1032.83 MB/s)|
|Paraview surface                   |surface_flowdatabladeVALIDATION_Blade_14.vtu|
|                                   |                     (98.3623 MB/s)|
|SU2 ASCII restart                  |restart_flow_databladeVALIDATION_Blade_14.csv|
|                                   |                     (20.7884 MB/s)|
|CSV file                           |surface_flowdatabladeVALIDATION_Blade_14.csv|
|                                   |                     (21.4741 MB/s)|
+-----------------------------------------------------------------------+
+--------------------------------------+
|  Inner_Iter|   Time(sec)|    rms[Rho]|
+--------------------------------------+
|        2510|  1.1769e-01|   -6.560033|
|        2520|  1.1747e-01|   -6.582149|
|        2530|  1.1725e-01|   -6.501761|
|        2540|  1.1706e-01|   -6.492730|
|        2550|  1.1685e-01|   -6.538813|
+-----------------------------------------------------------------------+
|        File Writing Summary       |              Filename             |
+-----------------------------------------------------------------------+
|SU2 binary restart                 |restart_flow_databladeVALIDATION_Blade_14.dat|
|                                   |                     (12223.3 MB/s)|
|Paraview                           |volume_flow_databladeVALIDATION_Blade_14.vtu|
|                                   |                     (978.124 MB/s)|
|Paraview surface                   |surface_flowdatabladeVALIDATION_Blade_14.vtu|
|                                   |                     (89.8535 MB/s)|
|SU2 ASCII restart                  |restart_flow_databladeVALIDATION_Blade_14.csv|
|                                   |                     (20.7309 MB/s)|
|CSV file                           |surface_flowdatabladeVALIDATION_Blade_14.csv|
|                                   |                      (20.311 MB/s)|
+-----------------------------------------------------------------------+
+--------------------------------------+
|  Inner_Iter|   Time(sec)|    rms[Rho]|
+--------------------------------------+
|        2560|  1.1758e-01|   -6.510072|
|        2570|  1.1740e-01|   -6.372987|
|        2580|  1.1719e-01|   -6.482784|
|        2590|  1.1697e-01|   -6.540064|
|        2600|  1.1678e-01|   -6.536265|
+-----------------------------------------------------------------------+
|        File Writing Summary       |              Filename             |
+-----------------------------------------------------------------------+
|SU2 binary restart                 |restart_flow_databladeVALIDATION_Blade_14.dat|
|                                   |                     (13135.6 MB/s)|
|Paraview                           |volume_flow_databladeVALIDATION_Blade_14.vtu|
|                                   |                     (1031.44 MB/s)|
|Paraview surface                   |surface_flowdatabladeVALIDATION_Blade_14.vtu|
|                                   |                     (101.072 MB/s)|
|SU2 ASCII restart                  |restart_flow_databladeVALIDATION_Blade_14.csv|
|                                   |                     (21.3108 MB/s)|
|CSV file                           |surface_flowdatabladeVALIDATION_Blade_14.csv|
|                                   |                     (18.7576 MB/s)|
+-----------------------------------------------------------------------+
+--------------------------------------+
|  Inner_Iter|   Time(sec)|    rms[Rho]|
+--------------------------------------+
|        2610|  1.1749e-01|   -6.554815|
|        2620|  1.1728e-01|   -6.645966|
|        2630|  1.1707e-01|   -6.656316|
|        2640|  1.1688e-01|   -6.614393|
|        2650|  1.1669e-01|   -6.634298|
+-----------------------------------------------------------------------+
|        File Writing Summary       |              Filename             |
+-----------------------------------------------------------------------+
|SU2 binary restart                 |restart_flow_databladeVALIDATION_Blade_14.dat|
|                                   |                     (12570.8 MB/s)|
|Paraview                           |volume_flow_databladeVALIDATION_Blade_14.vtu|
|                                   |                     (937.134 MB/s)|
|Paraview surface                   |surface_flowdatabladeVALIDATION_Blade_14.vtu|
|                                   |                     (101.715 MB/s)|
|SU2 ASCII restart                  |restart_flow_databladeVALIDATION_Blade_14.csv|
|                                   |                     (21.2654 MB/s)|
|CSV file                           |surface_flowdatabladeVALIDATION_Blade_14.csv|
|                                   |                     (21.1247 MB/s)|
+-----------------------------------------------------------------------+
+--------------------------------------+
|  Inner_Iter|   Time(sec)|    rms[Rho]|
+--------------------------------------+
|        2660|  1.1734e-01|   -6.660369|
|        2670|  1.1714e-01|   -6.620484|
|        2680|  1.1698e-01|   -6.514803|
|        2690|  1.1677e-01|   -6.618585|
|        2700|  1.1664e-01|   -6.558117|
+-----------------------------------------------------------------------+
|        File Writing Summary       |              Filename             |
+-----------------------------------------------------------------------+
|SU2 binary restart                 |restart_flow_databladeVALIDATION_Blade_14.dat|
|                                   |                     (12797.8 MB/s)|
|Paraview                           |volume_flow_databladeVALIDATION_Blade_14.vtu|
|                                   |                     (1016.17 MB/s)|
|Paraview surface                   |surface_flowdatabladeVALIDATION_Blade_14.vtu|
|                                   |                     (120.471 MB/s)|
|SU2 ASCII restart                  |restart_flow_databladeVALIDATION_Blade_14.csv|
|                                   |                     (20.9102 MB/s)|
|CSV file                           |surface_flowdatabladeVALIDATION_Blade_14.csv|
|                                   |                     (19.3762 MB/s)|
+-----------------------------------------------------------------------+
+--------------------------------------+
|  Inner_Iter|   Time(sec)|    rms[Rho]|
+--------------------------------------+
|        2710|  1.1742e-01|   -6.745658|
|        2720|  1.1729e-01|   -6.751333|
|        2730|  1.1718e-01|   -6.754729|
|        2740|  1.1702e-01|   -6.820196|
|        2750|  1.1693e-01|   -6.817248|
+-----------------------------------------------------------------------+
|        File Writing Summary       |              Filename             |
+-----------------------------------------------------------------------+
|SU2 binary restart                 |restart_flow_databladeVALIDATION_Blade_14.dat|
|                                   |                     (7507.94 MB/s)|
|Paraview                           |volume_flow_databladeVALIDATION_Blade_14.vtu|
|                                   |                     (875.438 MB/s)|
|Paraview surface                   |surface_flowdatabladeVALIDATION_Blade_14.vtu|
|                                   |                     (103.209 MB/s)|
|SU2 ASCII restart                  |restart_flow_databladeVALIDATION_Blade_14.csv|
|                                   |                      (20.586 MB/s)|
|CSV file                           |surface_flowdatabladeVALIDATION_Blade_14.csv|
|                                   |                     (16.7003 MB/s)|
+-----------------------------------------------------------------------+
+--------------------------------------+
|  Inner_Iter|   Time(sec)|    rms[Rho]|
+--------------------------------------+
|        2760|  1.1768e-01|   -6.758097|
|        2770|  1.1752e-01|   -6.761347|
|        2780|  1.1731e-01|   -6.800033|
|        2790|  1.1713e-01|   -6.782721|
|        2800|  1.1698e-01|   -6.685687|
+-----------------------------------------------------------------------+
|        File Writing Summary       |              Filename             |
+-----------------------------------------------------------------------+
|SU2 binary restart                 |restart_flow_databladeVALIDATION_Blade_14.dat|
|                                   |                     (12492.4 MB/s)|
|Paraview                           |volume_flow_databladeVALIDATION_Blade_14.vtu|
|                                   |                     (900.986 MB/s)|
|Paraview surface                   |surface_flowdatabladeVALIDATION_Blade_14.vtu|
|                                   |                      (100.16 MB/s)|
|SU2 ASCII restart                  |restart_flow_databladeVALIDATION_Blade_14.csv|
|                                   |                     (20.9115 MB/s)|
|CSV file                           |surface_flowdatabladeVALIDATION_Blade_14.csv|
|                                   |                     (18.3924 MB/s)|
+-----------------------------------------------------------------------+
+--------------------------------------+
|  Inner_Iter|   Time(sec)|    rms[Rho]|
+--------------------------------------+
|        2810|  1.1762e-01|   -6.815557|
|        2820|  1.1744e-01|   -6.854589|
|        2830|  1.1728e-01|   -6.857846|
|        2840|  1.1713e-01|   -6.868554|
|        2850|  1.1693e-01|   -6.915214|
+-----------------------------------------------------------------------+
|        File Writing Summary       |              Filename             |
+-----------------------------------------------------------------------+
|SU2 binary restart                 |restart_flow_databladeVALIDATION_Blade_14.dat|
|                                   |                     (11828.6 MB/s)|
|Paraview                           |volume_flow_databladeVALIDATION_Blade_14.vtu|
|                                   |                     (993.208 MB/s)|
|Paraview surface                   |surface_flowdatabladeVALIDATION_Blade_14.vtu|
|                                   |                     (91.0824 MB/s)|
|SU2 ASCII restart                  |restart_flow_databladeVALIDATION_Blade_14.csv|
|                                   |                     (14.9311 MB/s)|
|CSV file                           |surface_flowdatabladeVALIDATION_Blade_14.csv|
|                                   |                      (19.116 MB/s)|
+-----------------------------------------------------------------------+
+--------------------------------------+
|  Inner_Iter|   Time(sec)|    rms[Rho]|
+--------------------------------------+
|        2860|  1.1790e-01|   -6.866224|
|        2870|  1.1772e-01|   -6.841606|
|        2880|  1.1754e-01|   -6.880135|
|        2890|  1.1735e-01|   -6.885195|
|        2900|  1.1718e-01|   -6.821013|
+-----------------------------------------------------------------------+
|        File Writing Summary       |              Filename             |
+-----------------------------------------------------------------------+
|SU2 binary restart                 |restart_flow_databladeVALIDATION_Blade_14.dat|
|                                   |                     (11911.1 MB/s)|
|Paraview                           |volume_flow_databladeVALIDATION_Blade_14.vtu|
|                                   |                     (865.739 MB/s)|
|Paraview surface                   |surface_flowdatabladeVALIDATION_Blade_14.vtu|
|                                   |                     (111.904 MB/s)|
|SU2 ASCII restart                  |restart_flow_databladeVALIDATION_Blade_14.csv|
|                                   |                     (20.7177 MB/s)|
|CSV file                           |surface_flowdatabladeVALIDATION_Blade_14.csv|
|                                   |                     (21.2897 MB/s)|
+-----------------------------------------------------------------------+
+--------------------------------------+
|  Inner_Iter|   Time(sec)|    rms[Rho]|
+--------------------------------------+
|        2910|  1.1784e-01|   -6.817464|
|        2920|  1.1764e-01|   -6.882141|
|        2930|  1.1746e-01|   -6.893308|
|        2940|  1.1728e-01|   -6.892590|
|        2950|  1.1711e-01|   -6.933600|
+-----------------------------------------------------------------------+
|        File Writing Summary       |              Filename             |
+-----------------------------------------------------------------------+
|SU2 binary restart                 |restart_flow_databladeVALIDATION_Blade_14.dat|
|                                   |                     (12421.7 MB/s)|
|Paraview                           |volume_flow_databladeVALIDATION_Blade_14.vtu|
|                                   |                     (994.252 MB/s)|
|Paraview surface                   |surface_flowdatabladeVALIDATION_Blade_14.vtu|
|                                   |                      (96.265 MB/s)|
|SU2 ASCII restart                  |restart_flow_databladeVALIDATION_Blade_14.csv|
|                                   |                     (20.9489 MB/s)|
|CSV file                           |surface_flowdatabladeVALIDATION_Blade_14.csv|
|                                   |                     (21.8383 MB/s)|
+-----------------------------------------------------------------------+
+--------------------------------------+
|  Inner_Iter|   Time(sec)|    rms[Rho]|
+--------------------------------------+
|        2960|  1.1771e-01|   -6.977129|
|        2970|  1.1758e-01|   -6.921976|
|        2980|  1.1743e-01|   -6.959498|
|        2990|  1.1725e-01|   -6.970519|
|        3000|  1.1710e-01|   -6.939154|
+-----------------------------------------------------------------------+
|        File Writing Summary       |              Filename             |
+-----------------------------------------------------------------------+
|SU2 binary restart                 |restart_flow_databladeVALIDATION_Blade_14.dat|
|                                   |                       (12131 MB/s)|
|Paraview                           |volume_flow_databladeVALIDATION_Blade_14.vtu|
|                                   |                     (827.067 MB/s)|
|Paraview surface                   |surface_flowdatabladeVALIDATION_Blade_14.vtu|
|                                   |                     (52.8222 MB/s)|
|SU2 ASCII restart                  |restart_flow_databladeVALIDATION_Blade_14.csv|
|                                   |                     (21.1421 MB/s)|
|CSV file                           |surface_flowdatabladeVALIDATION_Blade_14.csv|
|                                   |                     (21.6857 MB/s)|
+-----------------------------------------------------------------------+
+--------------------------------------+
|  Inner_Iter|   Time(sec)|    rms[Rho]|
+--------------------------------------+
|        3010|  1.1773e-01|   -6.872707|
|        3020|  1.1754e-01|   -6.928861|
|        3030|  1.1737e-01|   -6.909277|
|        3040|  1.1721e-01|   -6.876900|
|        3050|  1.1704e-01|   -6.966194|
+-----------------------------------------------------------------------+
|        File Writing Summary       |              Filename             |
+-----------------------------------------------------------------------+
|SU2 binary restart                 |restart_flow_databladeVALIDATION_Blade_14.dat|
|                                   |                     (12897.5 MB/s)|
|Paraview                           |volume_flow_databladeVALIDATION_Blade_14.vtu|
|                                   |                     (970.455 MB/s)|
|Paraview surface                   |surface_flowdatabladeVALIDATION_Blade_14.vtu|
|                                   |                     (88.4914 MB/s)|
|SU2 ASCII restart                  |restart_flow_databladeVALIDATION_Blade_14.csv|
|                                   |                      (21.124 MB/s)|
|CSV file                           |surface_flowdatabladeVALIDATION_Blade_14.csv|
|                                   |                     (20.3245 MB/s)|
+-----------------------------------------------------------------------+
+--------------------------------------+
|  Inner_Iter|   Time(sec)|    rms[Rho]|
+--------------------------------------+
|        3058|  1.1766e-01|   -7.009134|

----------------------------- Solver Exit -------------------------------
All convergence criteria satisfied.
+-----------------------------------------------------------------------+
|      Convergence Field     |     Value    |   Criterion  |  Converged |
+-----------------------------------------------------------------------+
|                    rms[Rho]|      -7.00913|          < -7|         Yes|
+-----------------------------------------------------------------------+
-------------------------------------------------------------------------
+-----------------------------------------------------------------------+
|        File Writing Summary       |              Filename             |
+-----------------------------------------------------------------------+
|SU2 binary restart                 |restart_flow_databladeVALIDATION_Blade_14.dat|
|                                   |                       (13272 MB/s)|
|Paraview                           |volume_flow_databladeVALIDATION_Blade_14.vtu|
|                                   |                     (1026.99 MB/s)|
|Paraview surface                   |surface_flowdatabladeVALIDATION_Blade_14.vtu|
|                                   |                     (91.1582 MB/s)|
|SU2 ASCII restart                  |restart_flow_databladeVALIDATION_Blade_14.csv|
|                                   |                     (21.1778 MB/s)|
|CSV file                           |surface_flowdatabladeVALIDATION_Blade_14.csv|
|                                   |                     (20.9113 MB/s)|
+-----------------------------------------------------------------------+

--------------------------- Finalizing Solver ---------------------------
Deleted CNumerics container.
Deleted CIntegration container.
Deleted CSolver container.
Deleted CIteration container.
Deleted CInterface container.
Deleted CGeometry container.
Deleted CFreeFormDefBox class.
Deleted CSurfaceMovement class.
Deleted CVolumetricMovement class.
Deleted CConfig container.
Deleted nInst container.
Deleted COutput class.
-------------------------------------------------------------------------


-------------------------- Performance Summary --------------------------
Simulation totals:
   Wall-clock time (hrs):    0.100756 |            Core-hrs:     1.20907
                   Cores:          12 |          DOFs/point:           5
             Points/core:     5118.17 |   Ghost points/core:     139.833
 Ghost/Owned Point Ratio:    0.027321 | 

Preprocessing phase:
       Preproc. Time (s):    0.455653 |   Preproc. Time (%):     0.12562

Compute phase:
        Compute Time (s):     359.929 |    Compute Time (%):     99.2299
         Iteration count:        3059 |         Avg. s/iter:    0.117662
     Core-s/iter/Mpoints:     22.3778 |           Mpoints/s:    0.536246

Output phase:
         Output Time (s):      2.3376 |     Output Time (%):    0.644459
            Output count:           1 |       Avg. s/output:      2.3376
 Restart Aggr. BW (MB/s):      661917 |           MB/s/core:     55159.7
-------------------------------------------------------------------------


------------------------- Exit Success (SU2_CFD) ------------------------

