
-------------------------------------------------------------------------
|    ___ _   _ ___                                                      |
|   / __| | | |_  )   Release 8.0.1 "Harrier"                           |
|   \__ \ |_| |/ /                                                      |
|   |___/\___//___|   Suite (Computational Fluid Dynamics Code)         |
|                                                                       |
-------------------------------------------------------------------------
| SU2 Project Website: https://su2code.github.io                        |
|                                                                       |
| The SU2 Project is maintained by the SU2 Foundation                   |
| (http://su2foundation.org)                                            |
-------------------------------------------------------------------------
| Copyright 2012-2024, SU2 Contributors                                 |
|                                                                       |
| SU2 is free software; you can redistribute it and/or                  |
| modify it under the terms of the GNU Lesser General Public            |
| License as published by the Free Software Foundation; either          |
| version 2.1 of the License, or (at your option) any later version.    |
|                                                                       |
| SU2 is distributed in the hope that it will be useful,                |
| but WITHOUT ANY WARRANTY; without even the implied warranty of        |
| MERCHANTABILITY or FITNESS FOR A PARTICULAR PURPOSE. See the GNU      |
| Lesser General Public License for more details.                       |
|                                                                       |
| You should have received a copy of the GNU Lesser General Public      |
| License along with SU2. If not, see <http://www.gnu.org/licenses/>.   |
-------------------------------------------------------------------------

Parsing config file for zone 0

----------------- Physical Case Definition ( Zone 0 ) -------------------
Compressible RANS equations.
Turbulence model: Spalart-Allmaras-noft2-BCM
Hybrid RANS/LES: No Hybrid RANS/LES
Mach number: 0.6.
Angle of attack (AoA): -10 deg, and angle of sideslip (AoS): 0 deg.
Reynolds number: 600000. Reference length 1.00226.
No restart solution, use the values at infinity (freestream).
Dimensional simulation.
The reference area will be computed using y(2D) or z(3D) projection.
The semi-span will be computed using the max y(3D) value.
The reference length is 1.00226 m.
Reference origin for moment evaluation is (0, 0, 0).
Surface(s) where the force coefficients are evaluated: blade1.

Surface(s) plotted in the output file: blade1.
Surface(s) to be analyzed in detail: inlet, outlet, blade1.
Input mesh file name: cascade2D_databladeVALIDATION_Blade_7.su2

--------------- Space Numerical Integration ( Zone 0 ) ------------------
Jameson-Schmidt-Turkel scheme (2nd order in space) for the flow inviscid terms.
JST viscous coefficients (2nd & 4th): 0.5, 0.02.
The method includes a grid stretching correction (p = 0.3).
Scalar upwind solver for the turbulence model.
First order integration in space.
Average of gradients with correction (viscous flow terms).
Average of gradients with correction (viscous turbulence terms).
Gradient for upwind reconstruction: inverse-distance weighted Least-Squares.
Gradient for viscous and source terms: inverse-distance weighted Least-Squares.

--------------- Time Numerical Integration  ( Zone 0 ) ------------------
Local time stepping (steady state simulation).
Euler implicit method for the flow equations.
FGMRES is used for solving the linear system.
Using a LU-SGS preconditioning.
Convergence criteria of the linear solver: 0.0001.
Max number of linear iterations: 10.
V Multigrid Cycle, with 3 multigrid levels.
Damping factor for the residual restriction: 0.75.
Damping factor for the correction prolongation: 0.75.
CFL adaptation. Factor down: 0.1, factor up: 1.2,
                lower limit: 0.1, upper limit: 100,
                acceptable linear residual: 0.001.
+-------------------------------------------+
|  MG Level| Presmooth|PostSmooth|CorrectSmo|
+-------------------------------------------+
|         0|         1|         0|         1|
|         1|         2|         2|         2|
|         2|         3|         3|         3|
|         3|         3|         0|         0|
+-------------------------------------------+
Courant-Friedrichs-Lewy number:       12
Euler implicit time integration for the turbulence model.

------------------ Convergence Criteria  ( Zone 0 ) ---------------------
Maximum number of solver subiterations: 7000.
Begin convergence monitoring at iteration 500.
Residual minimum value: 1e-7.
Cauchy series min. value: 1e-10.
Number of Cauchy elements: 100.
Begin windowed time average at iteration 0.

-------------------- Output Information ( Zone 0 ) ----------------------
File writing frequency: 
+------------------------------------+
|                     File| Frequency|
+------------------------------------+
|                  RESTART|        50|
|                 PARAVIEW|        50|
|         SURFACE_PARAVIEW|        50|
|                      CSV|        50|
|              SURFACE_CSV|        50|
+------------------------------------+
Writing the convergence history file every 1 inner iterations.
Writing the screen convergence history every 10 inner iterations.
The tabular file format is CSV (.csv).
Convergence history file name: history_databladeVALIDATION_Blade_7.
Forces breakdown file name: forces_breakdown.dat.
Surface file name: surface_flowdatabladeVALIDATION_Blade_7.
Volume file name: volume_flow_databladeVALIDATION_Blade_7.
Restart file name: restart_flow_databladeVALIDATION_Blade_7.dat.

------------- Config File Boundary Information ( Zone 0 ) ---------------
+-----------------------------------------------------------------------+
|                        Marker Type|                        Marker Name|
+-----------------------------------------------------------------------+
|                  Periodic boundary|               symmetricWallsBOTTOM|
|                                   |                  symmetricWallsTOP|
+-----------------------------------------------------------------------+
|                     Inlet boundary|                              inlet|
+-----------------------------------------------------------------------+
|                    Outlet boundary|                             outlet|
+-----------------------------------------------------------------------+
|                     Heat flux wall|                             blade1|
|                                   |                             blade2|
+-----------------------------------------------------------------------+

-------------------- Output Preprocessing ( Zone 0 ) --------------------
  Info: Ignoring the following screen output fields:
  LINSOL_ITER_TRANS, LINSOL_RESIDUAL_TRANS
Screen output fields: INNER_ITER, WALL_TIME, RMS_DENSITY
  Info: Ignoring the following history output groups:
  RMS_TKE, RMS_DISSIPATION
History output group(s): INNER_ITER, WALL_TIME, RMS_DENSITY, RMS_MOMENTUM-X, RMS_ENERGY, LINSOL, CFL_NUMBER, FLOW_COEFF_SURF, AERO_COEFF_SURF
Convergence field(s): RMS_DENSITY
Warning: No (valid) fields chosen for time convergence monitoring. Time convergence monitoring inactive.
Volume output fields: COORDINATES, SOLUTION, PRIMITIVE, RESIDUAL, TIMESTEP, MESH_QUALITY, VORTEX_IDENTIFICATION

------------------- Geometry Preprocessing ( Zone 0 ) -------------------
Two dimensional problem.
61346 grid points before partitioning.
91298 volume elements before partitioning.
5 surface markers.
22 boundary elements in index 0 (Marker = inlet).
257 boundary elements in index 1 (Marker = symmetricWallsBOTTOM).
257 boundary elements in index 2 (Marker = symmetricWallsTOP).
22 boundary elements in index 3 (Marker = outlet).
1186 boundary elements in index 4 (Marker = blade1).
Executing the partitioning functions.
Building the graph adjacency structure.
Calling ParMETIS... graph partitioning complete (1490 edge cuts).
Distributing ParMETIS coloring.
Rebalancing vertices.
Rebalancing volume element connectivity.
Rebalancing markers and surface elements.
63232 vertices including ghost points. 
92777 interior elements including halo cells. 
62744 triangles.
30033 quadrilaterals.
Establishing MPI communication patterns.
Setting point connectivity.
Renumbering points (Reverse Cuthill McKee Ordering).
Recomputing point connectivity.
Setting element connectivity.
Checking the numerical grid orientation.
All volume elements are correctly orientend.
There has been a re-orientation of 884 LINE surface elements.
Identifying edges and vertices.
Setting the control volume structure.
Area of the computational grid: 2.93626.
Searching for the closest normal neighbors to the surfaces.
Storing a mapping from global to local point index.
Compute the surface curvature.
Max K: 133.766. Mean K: 4.93572. Standard deviation K: 16.196.
Checking for periodicity.
WARNING: Periodicity has been detected. Disabling multigrid. 
Computing mesh quality statistics for the dual control volumes.
+--------------------------------------------------------------+
|           Mesh Quality Metric|        Minimum|        Maximum|
+--------------------------------------------------------------+
|    Orthogonality Angle (deg.)|        62.2248|             90|
|     CV Face Area Aspect Ratio|        1.00013|        240.438|
|           CV Sub-Volume Ratio|              1|        20.4382|
+--------------------------------------------------------------+
Finding max control volume width.
Communicating number of neighbors.
Reference length = 1.01383 m.
Wetted area = 2.61429 m.
Area projection in the x-plane = 0.711271 m, y-plane = 1.01383 m.
Max. coordinate in the x-direction = 1.01356 m, y-direction = 0.620889 m.
Min. coordinate in the x-direction = -0.000276364 m, y-direction = -0.0903855 m.
Matching the periodic boundary points for marker pair 1.
 Matched 516 points with a max distance of: 7.0746e-14.
Computing wall distances.

-------------------- Solver Preprocessing ( Zone 0 ) --------------------
Viscous flow: Computing pressure using the ideal gas law
based on the free-stream temperature and a density computed
from the Reynolds number.
Force coefficients computed using free-stream values.

-- Models:
+------------------------------------------------------------------------------+
|          Viscosity Model|        Conductivity Model|              Fluid Model|
+------------------------------------------------------------------------------+
|               SUTHERLAND|          CONSTANT_PRANDTL|                IDEAL_GAS|
+------------------------------------------------------------------------------+
-- Fluid properties:
+------------------------------------------------------------------------------+
|                  Name|    Dim. value|    Ref. value|      Unit|Non-dim. value|
+------------------------------------------------------------------------------+
|        Ref. Viscosity|     1.716e-05|             1|   N.s/m^2|     1.716e-05|
|      Sutherland Temp.|        273.15|             1|         K|        273.15|
|     Sutherland Const.|         110.4|             1|         K|         110.4|
+------------------------------------------------------------------------------+
|        Prandtl (Lam.)|             -|             -|         -|          0.72|
|       Prandtl (Turb.)|             -|             -|         -|           0.9|
+------------------------------------------------------------------------------+
|          Gas Constant|       287.058|             1|  N.m/kg.K|       287.058|
|      Spec. Heat Ratio|             -|             -|         -|           1.4|
+------------------------------------------------------------------------------+
-- Initial and free-stream conditions:
+------------------------------------------------------------------------------+
|                  Name|    Dim. value|    Ref. value|      Unit|Non-dim. value|
+------------------------------------------------------------------------------+
|       Static Pressure|       4567.87|             1|        Pa|       4567.87|
|               Density|     0.0530423|             1|    kg/m^3|     0.0530423|
|           Temperature|           300|             1|         K|           300|
|          Total Energy|        236995|             1|   m^2/s^2|        236995|
|            Velocity-X|       205.169|             1|       m/s|       205.169|
|            Velocity-Y|      -36.1769|             1|       m/s|      -36.1769|
|    Velocity Magnitude|       208.334|             1|       m/s|       208.334|
+------------------------------------------------------------------------------+
|             Viscosity|   1.84592e-05|             1|   N.s/m^2|   1.84592e-05|
|          Conductivity|             -|             1|   W/m^2.K|             -|
|     Turb. Kin. Energy|       79.7533|             1|   m^2/s^2|       79.7533|
|     Spec. Dissipation|   2.29171e+06|             1|       1/s|   2.29171e+06|
+------------------------------------------------------------------------------+
|           Mach Number|             -|             -|         -|           0.6|
|       Reynolds Number|             -|             -|         -|        600000|
+------------------------------------------------------------------------------+
Initialize Jacobian structure (Navier-Stokes). MG level: 0.
Initialize Jacobian structure (SA model).

------------------- Numerics Preprocessing ( Zone 0 ) -------------------

----------------- Integration Preprocessing ( Zone 0 ) ------------------

------------------- Iteration Preprocessing ( Zone 0 ) ------------------
Euler/Navier-Stokes/RANS fluid iteration.

------------------------------ Begin Solver -----------------------------

Simulation Run using the Single-zone Driver
WARNING: SU2 was not compiled for an AVX-capable architecture. Performance could be better,
         see https://su2code.github.io/docs_v7/Build-SU2-Linux-MacOS/#compiler-optimizations
+--------------------------------------+
|  Inner_Iter|   Time(sec)|    rms[Rho]|
+--------------------------------------+
|           0|  1.2083e-01|   -2.613956|
|          10|  9.4958e-02|   -3.225435|
|          20|  8.7884e-02|   -3.082692|
|          30|  8.4879e-02|   -3.066262|
|          40|  8.1114e-02|   -2.996349|
|          50|  8.1392e-02|   -2.997776|
+-----------------------------------------------------------------------+
|        File Writing Summary       |              Filename             |
+-----------------------------------------------------------------------+
|SU2 binary restart                 |restart_flow_databladeVALIDATION_Blade_7.dat|
|                                   |                     (10940.7 MB/s)|
|Paraview                           |volume_flow_databladeVALIDATION_Blade_7.vtu|
|                                   |                     (924.232 MB/s)|
|Paraview surface                   |surface_flowdatabladeVALIDATION_Blade_7.vtu|
|                                   |                      (91.466 MB/s)|
|SU2 ASCII restart                  |restart_flow_databladeVALIDATION_Blade_7.csv|
|                                   |                     (19.8013 MB/s)|
|CSV file                           |surface_flowdatabladeVALIDATION_Blade_7.csv|
|                                   |                     (19.3381 MB/s)|
+-----------------------------------------------------------------------+
+--------------------------------------+
|  Inner_Iter|   Time(sec)|    rms[Rho]|
+--------------------------------------+
|          60|  1.2363e-01|   -3.146844|
|          70|  1.1961e-01|   -3.202207|
|          80|  1.1920e-01|   -3.185949|
|          90|  1.1666e-01|   -3.021853|
|         100|  1.1376e-01|   -3.053548|
+-----------------------------------------------------------------------+
|        File Writing Summary       |              Filename             |
+-----------------------------------------------------------------------+
|SU2 binary restart                 |restart_flow_databladeVALIDATION_Blade_7.dat|
|                                   |                     (11796.7 MB/s)|
|Paraview                           |volume_flow_databladeVALIDATION_Blade_7.vtu|
|                                   |                     (911.957 MB/s)|
|Paraview surface                   |surface_flowdatabladeVALIDATION_Blade_7.vtu|
|                                   |                     (67.6391 MB/s)|
|SU2 ASCII restart                  |restart_flow_databladeVALIDATION_Blade_7.csv|
|                                   |                     (20.0116 MB/s)|
|CSV file                           |surface_flowdatabladeVALIDATION_Blade_7.csv|
|                                   |                     (19.8288 MB/s)|
+-----------------------------------------------------------------------+
+--------------------------------------+
|  Inner_Iter|   Time(sec)|    rms[Rho]|
+--------------------------------------+
|         110|  1.3201e-01|   -3.105460|
|         120|  1.2725e-01|   -3.162045|
|         130|  1.2331e-01|   -3.135874|
|         140|  1.2034e-01|   -3.156160|
|         150|  1.1703e-01|   -3.100480|
+-----------------------------------------------------------------------+
|        File Writing Summary       |              Filename             |
+-----------------------------------------------------------------------+
|SU2 binary restart                 |restart_flow_databladeVALIDATION_Blade_7.dat|
|                                   |                     (12231.1 MB/s)|
|Paraview                           |volume_flow_databladeVALIDATION_Blade_7.vtu|
|                                   |                     (874.125 MB/s)|
|Paraview surface                   |surface_flowdatabladeVALIDATION_Blade_7.vtu|
|                                   |                     (84.7194 MB/s)|
|SU2 ASCII restart                  |restart_flow_databladeVALIDATION_Blade_7.csv|
|                                   |                     (19.3312 MB/s)|
|CSV file                           |surface_flowdatabladeVALIDATION_Blade_7.csv|
|                                   |                     (19.6896 MB/s)|
+-----------------------------------------------------------------------+
+--------------------------------------+
|  Inner_Iter|   Time(sec)|    rms[Rho]|
+--------------------------------------+
|         160|  1.3125e-01|   -3.092426|
|         170|  1.3029e-01|   -3.056362|
|         180|  1.2835e-01|   -3.138724|
|         190|  1.2766e-01|   -3.197038|
|         200|  1.2607e-01|   -3.137146|
+-----------------------------------------------------------------------+
|        File Writing Summary       |              Filename             |
+-----------------------------------------------------------------------+
|SU2 binary restart                 |restart_flow_databladeVALIDATION_Blade_7.dat|
|                                   |                     (9157.43 MB/s)|
|Paraview                           |volume_flow_databladeVALIDATION_Blade_7.vtu|
|                                   |                     (934.163 MB/s)|
|Paraview surface                   |surface_flowdatabladeVALIDATION_Blade_7.vtu|
|                                   |                     (106.708 MB/s)|
|SU2 ASCII restart                  |restart_flow_databladeVALIDATION_Blade_7.csv|
|                                   |                     (21.0515 MB/s)|
|CSV file                           |surface_flowdatabladeVALIDATION_Blade_7.csv|
|                                   |                     (18.2317 MB/s)|
+-----------------------------------------------------------------------+
+--------------------------------------+
|  Inner_Iter|   Time(sec)|    rms[Rho]|
+--------------------------------------+
|         210|  1.3637e-01|   -3.258735|
|         220|  1.3403e-01|   -3.389067|
|         230|  1.3201e-01|   -3.425350|
|         240|  1.3108e-01|   -3.353708|
|         250|  1.2934e-01|   -3.461320|
+-----------------------------------------------------------------------+
|        File Writing Summary       |              Filename             |
+-----------------------------------------------------------------------+
|SU2 binary restart                 |restart_flow_databladeVALIDATION_Blade_7.dat|
|                                   |                      (8637.7 MB/s)|
|Paraview                           |volume_flow_databladeVALIDATION_Blade_7.vtu|
|                                   |                     (676.584 MB/s)|
|Paraview surface                   |surface_flowdatabladeVALIDATION_Blade_7.vtu|
|                                   |                      (53.755 MB/s)|
|SU2 ASCII restart                  |restart_flow_databladeVALIDATION_Blade_7.csv|
|                                   |                     (20.3076 MB/s)|
|CSV file                           |surface_flowdatabladeVALIDATION_Blade_7.csv|
|                                   |                     (20.4394 MB/s)|
+-----------------------------------------------------------------------+
+--------------------------------------+
|  Inner_Iter|   Time(sec)|    rms[Rho]|
+--------------------------------------+
|         260|  1.3721e-01|   -3.436125|
|         270|  1.3585e-01|   -3.433797|
|         280|  1.3347e-01|   -3.509179|
|         290|  1.3135e-01|   -3.565148|
|         300|  1.2977e-01|   -3.584209|
+-----------------------------------------------------------------------+
|        File Writing Summary       |              Filename             |
+-----------------------------------------------------------------------+
|SU2 binary restart                 |restart_flow_databladeVALIDATION_Blade_7.dat|
|                                   |                     (2933.53 MB/s)|
|Paraview                           |volume_flow_databladeVALIDATION_Blade_7.vtu|
|                                   |                     (404.539 MB/s)|
|Paraview surface                   |surface_flowdatabladeVALIDATION_Blade_7.vtu|
|                                   |                     (37.1273 MB/s)|
|SU2 ASCII restart                  |restart_flow_databladeVALIDATION_Blade_7.csv|
|                                   |                      (20.442 MB/s)|
|CSV file                           |surface_flowdatabladeVALIDATION_Blade_7.csv|
|                                   |                     (19.1955 MB/s)|
+-----------------------------------------------------------------------+
+--------------------------------------+
|  Inner_Iter|   Time(sec)|    rms[Rho]|
+--------------------------------------+
|         310|  1.3626e-01|   -3.641903|
|         320|  1.3427e-01|   -3.663350|
|         330|  1.3264e-01|   -3.693758|
|         340|  1.3141e-01|   -3.662212|
|         350|  1.3021e-01|   -3.736956|
+-----------------------------------------------------------------------+
|        File Writing Summary       |              Filename             |
+-----------------------------------------------------------------------+
|SU2 binary restart                 |restart_flow_databladeVALIDATION_Blade_7.dat|
|                                   |                       (10795 MB/s)|
|Paraview                           |volume_flow_databladeVALIDATION_Blade_7.vtu|
|                                   |                     (892.323 MB/s)|
|Paraview surface                   |surface_flowdatabladeVALIDATION_Blade_7.vtu|
|                                   |                     (75.0019 MB/s)|
|SU2 ASCII restart                  |restart_flow_databladeVALIDATION_Blade_7.csv|
|                                   |                     (20.2553 MB/s)|
|CSV file                           |surface_flowdatabladeVALIDATION_Blade_7.csv|
|                                   |                     (19.2908 MB/s)|
+-----------------------------------------------------------------------+
+--------------------------------------+
|  Inner_Iter|   Time(sec)|    rms[Rho]|
+--------------------------------------+
|         360|  1.3552e-01|   -3.772149|
|         370|  1.3399e-01|   -3.753818|
|         380|  1.3396e-01|   -3.718938|
|         390|  1.3366e-01|   -3.703662|
|         400|  1.3208e-01|   -3.690588|
+-----------------------------------------------------------------------+
|        File Writing Summary       |              Filename             |
+-----------------------------------------------------------------------+
|SU2 binary restart                 |restart_flow_databladeVALIDATION_Blade_7.dat|
|                                   |                     (9434.61 MB/s)|
|Paraview                           |volume_flow_databladeVALIDATION_Blade_7.vtu|
|                                   |                     (399.983 MB/s)|
|Paraview surface                   |surface_flowdatabladeVALIDATION_Blade_7.vtu|
|                                   |                     (25.3305 MB/s)|
|SU2 ASCII restart                  |restart_flow_databladeVALIDATION_Blade_7.csv|
|                                   |                      (20.303 MB/s)|
|CSV file                           |surface_flowdatabladeVALIDATION_Blade_7.csv|
|                                   |                     (20.1071 MB/s)|
+-----------------------------------------------------------------------+
+--------------------------------------+
|  Inner_Iter|   Time(sec)|    rms[Rho]|
+--------------------------------------+
|         410|  1.3692e-01|   -3.637494|
|         420|  1.3557e-01|   -3.683563|
|         430|  1.3410e-01|   -3.706058|
|         440|  1.3279e-01|   -3.694363|
|         450|  1.3175e-01|   -3.691845|
+-----------------------------------------------------------------------+
|        File Writing Summary       |              Filename             |
+-----------------------------------------------------------------------+
|SU2 binary restart                 |restart_flow_databladeVALIDATION_Blade_7.dat|
|                                   |                       (11480 MB/s)|
|Paraview                           |volume_flow_databladeVALIDATION_Blade_7.vtu|
|                                   |                     (999.452 MB/s)|
|Paraview surface                   |surface_flowdatabladeVALIDATION_Blade_7.vtu|
|                                   |                     (98.8422 MB/s)|
|SU2 ASCII restart                  |restart_flow_databladeVALIDATION_Blade_7.csv|
|                                   |                     (20.9014 MB/s)|
|CSV file                           |surface_flowdatabladeVALIDATION_Blade_7.csv|
|                                   |                     (20.6577 MB/s)|
+-----------------------------------------------------------------------+
+--------------------------------------+
|  Inner_Iter|   Time(sec)|    rms[Rho]|
+--------------------------------------+
|         460|  1.3553e-01|   -3.748722|
|         470|  1.3420e-01|   -3.754863|
|         480|  1.3322e-01|   -3.764799|
|         490|  1.3200e-01|   -3.838034|
|         500|  1.3075e-01|   -3.870278|
+-----------------------------------------------------------------------+
|        File Writing Summary       |              Filename             |
+-----------------------------------------------------------------------+
|SU2 binary restart                 |restart_flow_databladeVALIDATION_Blade_7.dat|
|                                   |                     (11974.5 MB/s)|
|Paraview                           |volume_flow_databladeVALIDATION_Blade_7.vtu|
|                                   |                      (838.58 MB/s)|
|Paraview surface                   |surface_flowdatabladeVALIDATION_Blade_7.vtu|
|                                   |                     (91.1341 MB/s)|
|SU2 ASCII restart                  |restart_flow_databladeVALIDATION_Blade_7.csv|
|                                   |                     (20.1963 MB/s)|
|CSV file                           |surface_flowdatabladeVALIDATION_Blade_7.csv|
|                                   |                     (18.4215 MB/s)|
+-----------------------------------------------------------------------+
+--------------------------------------+
|  Inner_Iter|   Time(sec)|    rms[Rho]|
+--------------------------------------+
|         510|  1.3453e-01|   -3.888937|
|         520|  1.3376e-01|   -3.893851|
|         530|  1.3276e-01|   -3.923609|
|         540|  1.3209e-01|   -3.927403|
|         550|  1.3164e-01|   -3.906782|
+-----------------------------------------------------------------------+
|        File Writing Summary       |              Filename             |
+-----------------------------------------------------------------------+
|SU2 binary restart                 |restart_flow_databladeVALIDATION_Blade_7.dat|
|                                   |                     (3221.31 MB/s)|
|Paraview                           |volume_flow_databladeVALIDATION_Blade_7.vtu|
|                                   |                     (545.845 MB/s)|
|Paraview surface                   |surface_flowdatabladeVALIDATION_Blade_7.vtu|
|                                   |                     (60.7698 MB/s)|
|SU2 ASCII restart                  |restart_flow_databladeVALIDATION_Blade_7.csv|
|                                   |                     (21.0872 MB/s)|
|CSV file                           |surface_flowdatabladeVALIDATION_Blade_7.csv|
|                                   |                     (19.9532 MB/s)|
+-----------------------------------------------------------------------+
+--------------------------------------+
|  Inner_Iter|   Time(sec)|    rms[Rho]|
+--------------------------------------+
|         560|  1.3508e-01|   -3.917718|
|         570|  1.3443e-01|   -3.957860|
|         580|  1.3383e-01|   -3.954339|
|         590|  1.3351e-01|   -3.949619|
|         600|  1.3292e-01|   -3.965016|
+-----------------------------------------------------------------------+
|        File Writing Summary       |              Filename             |
+-----------------------------------------------------------------------+
|SU2 binary restart                 |restart_flow_databladeVALIDATION_Blade_7.dat|
|                                   |                     (11709.8 MB/s)|
|Paraview                           |volume_flow_databladeVALIDATION_Blade_7.vtu|
|                                   |                     (803.888 MB/s)|
|Paraview surface                   |surface_flowdatabladeVALIDATION_Blade_7.vtu|
|                                   |                     (43.1868 MB/s)|
|SU2 ASCII restart                  |restart_flow_databladeVALIDATION_Blade_7.csv|
|                                   |                     (19.7075 MB/s)|
|CSV file                           |surface_flowdatabladeVALIDATION_Blade_7.csv|
|                                   |                     (20.3147 MB/s)|
+-----------------------------------------------------------------------+
+--------------------------------------+
|  Inner_Iter|   Time(sec)|    rms[Rho]|
+--------------------------------------+
|         610|  1.3638e-01|   -4.003389|
|         620|  1.3576e-01|   -4.021390|
|         630|  1.3498e-01|   -4.023496|
|         640|  1.3435e-01|   -4.001499|
|         650|  1.3344e-01|   -4.067861|
+-----------------------------------------------------------------------+
|        File Writing Summary       |              Filename             |
+-----------------------------------------------------------------------+
|SU2 binary restart                 |restart_flow_databladeVALIDATION_Blade_7.dat|
|                                   |                     (10304.3 MB/s)|
|Paraview                           |volume_flow_databladeVALIDATION_Blade_7.vtu|
|                                   |                     (844.248 MB/s)|
|Paraview surface                   |surface_flowdatabladeVALIDATION_Blade_7.vtu|
|                                   |                     (96.8684 MB/s)|
|SU2 ASCII restart                  |restart_flow_databladeVALIDATION_Blade_7.csv|
|                                   |                     (19.9891 MB/s)|
|CSV file                           |surface_flowdatabladeVALIDATION_Blade_7.csv|
|                                   |                     (19.3968 MB/s)|
+-----------------------------------------------------------------------+
+--------------------------------------+
|  Inner_Iter|   Time(sec)|    rms[Rho]|
+--------------------------------------+
|         660|  1.3643e-01|   -4.086435|
|         670|  1.3583e-01|   -4.082444|
|         680|  1.3534e-01|   -4.074638|
|         690|  1.3447e-01|   -4.104778|
|         700|  1.3360e-01|   -4.091181|
+-----------------------------------------------------------------------+
|        File Writing Summary       |              Filename             |
+-----------------------------------------------------------------------+
|SU2 binary restart                 |restart_flow_databladeVALIDATION_Blade_7.dat|
|                                   |                     (10542.2 MB/s)|
|Paraview                           |volume_flow_databladeVALIDATION_Blade_7.vtu|
|                                   |                     (917.771 MB/s)|
|Paraview surface                   |surface_flowdatabladeVALIDATION_Blade_7.vtu|
|                                   |                     (88.9715 MB/s)|
|SU2 ASCII restart                  |restart_flow_databladeVALIDATION_Blade_7.csv|
|                                   |                     (20.2436 MB/s)|
|CSV file                           |surface_flowdatabladeVALIDATION_Blade_7.csv|
|                                   |                     (19.9983 MB/s)|
+-----------------------------------------------------------------------+
+--------------------------------------+
|  Inner_Iter|   Time(sec)|    rms[Rho]|
+--------------------------------------+
|         710|  1.3630e-01|   -4.057627|
|         720|  1.3564e-01|   -4.068190|
|         730|  1.3507e-01|   -4.113938|
|         740|  1.3434e-01|   -4.124183|
|         750|  1.3379e-01|   -4.104772|
+-----------------------------------------------------------------------+
|        File Writing Summary       |              Filename             |
+-----------------------------------------------------------------------+
|SU2 binary restart                 |restart_flow_databladeVALIDATION_Blade_7.dat|
|                                   |                     (4996.04 MB/s)|
|Paraview                           |volume_flow_databladeVALIDATION_Blade_7.vtu|
|                                   |                     (843.352 MB/s)|
|Paraview surface                   |surface_flowdatabladeVALIDATION_Blade_7.vtu|
|                                   |                      (36.756 MB/s)|
|SU2 ASCII restart                  |restart_flow_databladeVALIDATION_Blade_7.csv|
|                                   |                     (20.2009 MB/s)|
|CSV file                           |surface_flowdatabladeVALIDATION_Blade_7.csv|
|                                   |                      (19.088 MB/s)|
+-----------------------------------------------------------------------+
+--------------------------------------+
|  Inner_Iter|   Time(sec)|    rms[Rho]|
+--------------------------------------+
|         760|  1.3617e-01|   -4.153438|
|         770|  1.3534e-01|   -4.155663|
|         780|  1.3466e-01|   -4.147629|
|         790|  1.3398e-01|   -4.166728|
|         800|  1.3354e-01|   -4.162228|
+-----------------------------------------------------------------------+
|        File Writing Summary       |              Filename             |
+-----------------------------------------------------------------------+
|SU2 binary restart                 |restart_flow_databladeVALIDATION_Blade_7.dat|
|                                   |                     (10754.9 MB/s)|
|Paraview                           |volume_flow_databladeVALIDATION_Blade_7.vtu|
|                                   |                     (856.833 MB/s)|
|Paraview surface                   |surface_flowdatabladeVALIDATION_Blade_7.vtu|
|                                   |                     (71.4477 MB/s)|
|SU2 ASCII restart                  |restart_flow_databladeVALIDATION_Blade_7.csv|
|                                   |                     (20.6571 MB/s)|
|CSV file                           |surface_flowdatabladeVALIDATION_Blade_7.csv|
|                                   |                     (18.4774 MB/s)|
+-----------------------------------------------------------------------+
+--------------------------------------+
|  Inner_Iter|   Time(sec)|    rms[Rho]|
+--------------------------------------+
|         810|  1.3590e-01|   -4.219074|
|         820|  1.3524e-01|   -4.203796|
|         830|  1.3453e-01|   -4.233773|
|         840|  1.3378e-01|   -4.257441|
|         850|  1.3316e-01|   -4.256109|
+-----------------------------------------------------------------------+
|        File Writing Summary       |              Filename             |
+-----------------------------------------------------------------------+
|SU2 binary restart                 |restart_flow_databladeVALIDATION_Blade_7.dat|
|                                   |                     (11202.3 MB/s)|
|Paraview                           |volume_flow_databladeVALIDATION_Blade_7.vtu|
|                                   |                     (973.028 MB/s)|
|Paraview surface                   |surface_flowdatabladeVALIDATION_Blade_7.vtu|
|                                   |                     (53.5485 MB/s)|
|SU2 ASCII restart                  |restart_flow_databladeVALIDATION_Blade_7.csv|
|                                   |                     (21.1067 MB/s)|
|CSV file                           |surface_flowdatabladeVALIDATION_Blade_7.csv|
|                                   |                     (19.8423 MB/s)|
+-----------------------------------------------------------------------+
+--------------------------------------+
|  Inner_Iter|   Time(sec)|    rms[Rho]|
+--------------------------------------+
|         860|  1.3530e-01|   -4.238947|
|         870|  1.3462e-01|   -4.289181|
|         880|  1.3401e-01|   -4.295658|
|         890|  1.3359e-01|   -4.237452|
|         900|  1.3306e-01|   -4.275827|
+-----------------------------------------------------------------------+
|        File Writing Summary       |              Filename             |
+-----------------------------------------------------------------------+
|SU2 binary restart                 |restart_flow_databladeVALIDATION_Blade_7.dat|
|                                   |                     (12529.9 MB/s)|
|Paraview                           |volume_flow_databladeVALIDATION_Blade_7.vtu|
|                                   |                     (788.013 MB/s)|
|Paraview surface                   |surface_flowdatabladeVALIDATION_Blade_7.vtu|
|                                   |                     (34.8018 MB/s)|
|SU2 ASCII restart                  |restart_flow_databladeVALIDATION_Blade_7.csv|
|                                   |                     (19.0609 MB/s)|
|CSV file                           |surface_flowdatabladeVALIDATION_Blade_7.csv|
|                                   |                     (19.8591 MB/s)|
+-----------------------------------------------------------------------+
+--------------------------------------+
|  Inner_Iter|   Time(sec)|    rms[Rho]|
+--------------------------------------+
|         910|  1.3567e-01|   -4.297392|
|         920|  1.3538e-01|   -4.364633|
|         930|  1.3505e-01|   -4.369878|
|         940|  1.3488e-01|   -4.354468|
|         950|  1.3464e-01|   -4.377253|
+-----------------------------------------------------------------------+
|        File Writing Summary       |              Filename             |
+-----------------------------------------------------------------------+
|SU2 binary restart                 |restart_flow_databladeVALIDATION_Blade_7.dat|
|                                   |                     (5069.16 MB/s)|
|Paraview                           |volume_flow_databladeVALIDATION_Blade_7.vtu|
|                                   |                     (788.739 MB/s)|
|Paraview surface                   |surface_flowdatabladeVALIDATION_Blade_7.vtu|
|                                   |                      (32.884 MB/s)|
|SU2 ASCII restart                  |restart_flow_databladeVALIDATION_Blade_7.csv|
|                                   |                     (20.6416 MB/s)|
|CSV file                           |surface_flowdatabladeVALIDATION_Blade_7.csv|
|                                   |                     (21.7934 MB/s)|
+-----------------------------------------------------------------------+
+--------------------------------------+
|  Inner_Iter|   Time(sec)|    rms[Rho]|
+--------------------------------------+
|         960|  1.3652e-01|   -4.412764|
|         970|  1.3594e-01|   -4.398921|
|         980|  1.3548e-01|   -4.348688|
|         990|  1.3484e-01|   -4.422498|
|        1000|  1.3425e-01|   -4.408344|
+-----------------------------------------------------------------------+
|        File Writing Summary       |              Filename             |
+-----------------------------------------------------------------------+
|SU2 binary restart                 |restart_flow_databladeVALIDATION_Blade_7.dat|
|                                   |                     (11473.5 MB/s)|
|Paraview                           |volume_flow_databladeVALIDATION_Blade_7.vtu|
|                                   |                     (959.724 MB/s)|
|Paraview surface                   |surface_flowdatabladeVALIDATION_Blade_7.vtu|
|                                   |                     (106.402 MB/s)|
|SU2 ASCII restart                  |restart_flow_databladeVALIDATION_Blade_7.csv|
|                                   |                     (20.7882 MB/s)|
|CSV file                           |surface_flowdatabladeVALIDATION_Blade_7.csv|
|                                   |                     (18.6576 MB/s)|
+-----------------------------------------------------------------------+
+--------------------------------------+
|  Inner_Iter|   Time(sec)|    rms[Rho]|
+--------------------------------------+
|        1010|  1.3614e-01|   -4.368233|
|        1020|  1.3551e-01|   -4.467004|
|        1030|  1.3493e-01|   -4.493808|
|        1040|  1.3451e-01|   -4.470662|
|        1050|  1.3417e-01|   -4.478591|
+-----------------------------------------------------------------------+
|        File Writing Summary       |              Filename             |
+-----------------------------------------------------------------------+
|SU2 binary restart                 |restart_flow_databladeVALIDATION_Blade_7.dat|
|                                   |                     (6547.63 MB/s)|
|Paraview                           |volume_flow_databladeVALIDATION_Blade_7.vtu|
|                                   |                     (869.225 MB/s)|
|Paraview surface                   |surface_flowdatabladeVALIDATION_Blade_7.vtu|
|                                   |                     (45.0216 MB/s)|
|SU2 ASCII restart                  |restart_flow_databladeVALIDATION_Blade_7.csv|
|                                   |                     (20.3995 MB/s)|
|CSV file                           |surface_flowdatabladeVALIDATION_Blade_7.csv|
|                                   |                     (19.1452 MB/s)|
+-----------------------------------------------------------------------+
+--------------------------------------+
|  Inner_Iter|   Time(sec)|    rms[Rho]|
+--------------------------------------+
|        1060|  1.3588e-01|   -4.497914|
|        1070|  1.3530e-01|   -4.477102|
|        1080|  1.3481e-01|   -4.422867|
|        1090|  1.3426e-01|   -4.527772|
|        1100|  1.3391e-01|   -4.540494|
+-----------------------------------------------------------------------+
|        File Writing Summary       |              Filename             |
+-----------------------------------------------------------------------+
|SU2 binary restart                 |restart_flow_databladeVALIDATION_Blade_7.dat|
|                                   |                     (10667.8 MB/s)|
|Paraview                           |volume_flow_databladeVALIDATION_Blade_7.vtu|
|                                   |                     (966.563 MB/s)|
|Paraview surface                   |surface_flowdatabladeVALIDATION_Blade_7.vtu|
|                                   |                     (46.1232 MB/s)|
|SU2 ASCII restart                  |restart_flow_databladeVALIDATION_Blade_7.csv|
|                                   |                     (20.5056 MB/s)|
|CSV file                           |surface_flowdatabladeVALIDATION_Blade_7.csv|
|                                   |                     (19.5187 MB/s)|
+-----------------------------------------------------------------------+
+--------------------------------------+
|  Inner_Iter|   Time(sec)|    rms[Rho]|
+--------------------------------------+
|        1110|  1.3574e-01|   -4.529057|
|        1120|  1.3524e-01|   -4.581791|
|        1130|  1.3472e-01|   -4.573156|
|        1140|  1.3425e-01|   -4.527170|
|        1150|  1.3381e-01|   -4.551573|
+-----------------------------------------------------------------------+
|        File Writing Summary       |              Filename             |
+-----------------------------------------------------------------------+
|SU2 binary restart                 |restart_flow_databladeVALIDATION_Blade_7.dat|
|                                   |                     (11515.1 MB/s)|
|Paraview                           |volume_flow_databladeVALIDATION_Blade_7.vtu|
|                                   |                      (965.27 MB/s)|
|Paraview surface                   |surface_flowdatabladeVALIDATION_Blade_7.vtu|
|                                   |                     (62.8384 MB/s)|
|SU2 ASCII restart                  |restart_flow_databladeVALIDATION_Blade_7.csv|
|                                   |                     (20.6799 MB/s)|
|CSV file                           |surface_flowdatabladeVALIDATION_Blade_7.csv|
|                                   |                     (19.1685 MB/s)|
+-----------------------------------------------------------------------+
+--------------------------------------+
|  Inner_Iter|   Time(sec)|    rms[Rho]|
+--------------------------------------+
|        1160|  1.3538e-01|   -4.626690|
|        1170|  1.3490e-01|   -4.618315|
|        1180|  1.3443e-01|   -4.658036|
|        1190|  1.3396e-01|   -4.675711|
|        1200|  1.3357e-01|   -4.637129|
+-----------------------------------------------------------------------+
|        File Writing Summary       |              Filename             |
+-----------------------------------------------------------------------+
|SU2 binary restart                 |restart_flow_databladeVALIDATION_Blade_7.dat|
|                                   |                     (3982.27 MB/s)|
|Paraview                           |volume_flow_databladeVALIDATION_Blade_7.vtu|
|                                   |                     (128.479 MB/s)|
|Paraview surface                   |surface_flowdatabladeVALIDATION_Blade_7.vtu|
|                                   |                     (36.1481 MB/s)|
|SU2 ASCII restart                  |restart_flow_databladeVALIDATION_Blade_7.csv|
|                                   |                     (19.1191 MB/s)|
|CSV file                           |surface_flowdatabladeVALIDATION_Blade_7.csv|
|                                   |                     (15.2748 MB/s)|
+-----------------------------------------------------------------------+
+--------------------------------------+
|  Inner_Iter|   Time(sec)|    rms[Rho]|
+--------------------------------------+
|        1210|  1.3595e-01|   -4.568425|
|        1220|  1.3598e-01|   -4.654773|
|        1230|  1.3578e-01|   -4.683821|
|        1240|  1.3569e-01|   -4.684568|
|        1250|  1.3572e-01|   -4.708448|
+-----------------------------------------------------------------------+
|        File Writing Summary       |              Filename             |
+-----------------------------------------------------------------------+
|SU2 binary restart                 |restart_flow_databladeVALIDATION_Blade_7.dat|
|                                   |                     (7191.38 MB/s)|
|Paraview                           |volume_flow_databladeVALIDATION_Blade_7.vtu|
|                                   |                     (382.781 MB/s)|
|Paraview surface                   |surface_flowdatabladeVALIDATION_Blade_7.vtu|
|                                   |                     (22.3313 MB/s)|
|SU2 ASCII restart                  |restart_flow_databladeVALIDATION_Blade_7.csv|
|                                   |                     (18.6338 MB/s)|
|CSV file                           |surface_flowdatabladeVALIDATION_Blade_7.csv|
|                                   |                     (18.4494 MB/s)|
+-----------------------------------------------------------------------+
+--------------------------------------+
|  Inner_Iter|   Time(sec)|    rms[Rho]|
+--------------------------------------+
|        1260|  1.3747e-01|   -4.772559|
|        1270|  1.3708e-01|   -4.758958|
|        1280|  1.3671e-01|   -4.686776|
|        1290|  1.3630e-01|   -4.684676|
|        1300|  1.3585e-01|   -4.728994|
+-----------------------------------------------------------------------+
|        File Writing Summary       |              Filename             |
+-----------------------------------------------------------------------+
|SU2 binary restart                 |restart_flow_databladeVALIDATION_Blade_7.dat|
|                                   |                     (12122.2 MB/s)|
|Paraview                           |volume_flow_databladeVALIDATION_Blade_7.vtu|
|                                   |                     (904.405 MB/s)|
|Paraview surface                   |surface_flowdatabladeVALIDATION_Blade_7.vtu|
|                                   |                     (80.5392 MB/s)|
|SU2 ASCII restart                  |restart_flow_databladeVALIDATION_Blade_7.csv|
|                                   |                     (21.2103 MB/s)|
|CSV file                           |surface_flowdatabladeVALIDATION_Blade_7.csv|
|                                   |                     (18.4824 MB/s)|
+-----------------------------------------------------------------------+
+--------------------------------------+
|  Inner_Iter|   Time(sec)|    rms[Rho]|
+--------------------------------------+
|        1310|  1.3736e-01|   -4.693421|
|        1320|  1.3709e-01|   -4.732912|
|        1330|  1.3684e-01|   -4.697405|
|        1340|  1.3646e-01|   -4.782863|
|        1350|  1.3603e-01|   -4.766214|
+-----------------------------------------------------------------------+
|        File Writing Summary       |              Filename             |
+-----------------------------------------------------------------------+
|SU2 binary restart                 |restart_flow_databladeVALIDATION_Blade_7.dat|
|                                   |                     (11943.6 MB/s)|
|Paraview                           |volume_flow_databladeVALIDATION_Blade_7.vtu|
|                                   |                     (886.875 MB/s)|
|Paraview surface                   |surface_flowdatabladeVALIDATION_Blade_7.vtu|
|                                   |                     (89.3772 MB/s)|
|SU2 ASCII restart                  |restart_flow_databladeVALIDATION_Blade_7.csv|
|                                   |                      (20.903 MB/s)|
|CSV file                           |surface_flowdatabladeVALIDATION_Blade_7.csv|
|                                   |                     (20.5236 MB/s)|
+-----------------------------------------------------------------------+
+--------------------------------------+
|  Inner_Iter|   Time(sec)|    rms[Rho]|
+--------------------------------------+
|        1360|  1.3744e-01|   -4.763063|
|        1370|  1.3701e-01|   -4.878986|
|        1380|  1.3654e-01|   -4.897859|
|        1390|  1.3619e-01|   -4.830588|
|        1400|  1.3584e-01|   -4.796278|
+-----------------------------------------------------------------------+
|        File Writing Summary       |              Filename             |
+-----------------------------------------------------------------------+
|SU2 binary restart                 |restart_flow_databladeVALIDATION_Blade_7.dat|
|                                   |                     (11372.9 MB/s)|
|Paraview                           |volume_flow_databladeVALIDATION_Blade_7.vtu|
|                                   |                     (866.551 MB/s)|
|Paraview surface                   |surface_flowdatabladeVALIDATION_Blade_7.vtu|
|                                   |                     (98.0862 MB/s)|
|SU2 ASCII restart                  |restart_flow_databladeVALIDATION_Blade_7.csv|
|                                   |                     (20.6587 MB/s)|
|CSV file                           |surface_flowdatabladeVALIDATION_Blade_7.csv|
|                                   |                     (21.4674 MB/s)|
+-----------------------------------------------------------------------+
+--------------------------------------+
|  Inner_Iter|   Time(sec)|    rms[Rho]|
+--------------------------------------+
|        1410|  1.3715e-01|   -4.842730|
|        1420|  1.3679e-01|   -4.826318|
|        1430|  1.3652e-01|   -4.796267|
|        1440|  1.3612e-01|   -4.886554|
|        1450|  1.3583e-01|   -4.875175|
+-----------------------------------------------------------------------+
|        File Writing Summary       |              Filename             |
+-----------------------------------------------------------------------+
|SU2 binary restart                 |restart_flow_databladeVALIDATION_Blade_7.dat|
|                                   |                     (10753.4 MB/s)|
|Paraview                           |volume_flow_databladeVALIDATION_Blade_7.vtu|
|                                   |                     (908.767 MB/s)|
|Paraview surface                   |surface_flowdatabladeVALIDATION_Blade_7.vtu|
|                                   |                      (76.674 MB/s)|
|SU2 ASCII restart                  |restart_flow_databladeVALIDATION_Blade_7.csv|
|                                   |                     (20.4454 MB/s)|
|CSV file                           |surface_flowdatabladeVALIDATION_Blade_7.csv|
|                                   |                     (19.4653 MB/s)|
+-----------------------------------------------------------------------+
+--------------------------------------+
|  Inner_Iter|   Time(sec)|    rms[Rho]|
+--------------------------------------+
|        1460|  1.3717e-01|   -4.849888|
|        1470|  1.3685e-01|   -4.889856|
|        1480|  1.3648e-01|   -4.923912|
|        1490|  1.3615e-01|   -4.916725|
|        1500|  1.3585e-01|   -4.935584|
+-----------------------------------------------------------------------+
|        File Writing Summary       |              Filename             |
+-----------------------------------------------------------------------+
|SU2 binary restart                 |restart_flow_databladeVALIDATION_Blade_7.dat|
|                                   |                       (12297 MB/s)|
|Paraview                           |volume_flow_databladeVALIDATION_Blade_7.vtu|
|                                   |                     (901.466 MB/s)|
|Paraview surface                   |surface_flowdatabladeVALIDATION_Blade_7.vtu|
|                                   |                     (125.233 MB/s)|
|SU2 ASCII restart                  |restart_flow_databladeVALIDATION_Blade_7.csv|
|                                   |                     (20.9173 MB/s)|
|CSV file                           |surface_flowdatabladeVALIDATION_Blade_7.csv|
|                                   |                     (19.4235 MB/s)|
+-----------------------------------------------------------------------+
+--------------------------------------+
|  Inner_Iter|   Time(sec)|    rms[Rho]|
+--------------------------------------+
|        1510|  1.3703e-01|   -4.994367|
|        1520|  1.3660e-01|   -4.996355|
|        1530|  1.3629e-01|   -4.899018|
|        1540|  1.3597e-01|   -4.944895|
|        1550|  1.3561e-01|   -4.972187|
+-----------------------------------------------------------------------+
|        File Writing Summary       |              Filename             |
+-----------------------------------------------------------------------+
|SU2 binary restart                 |restart_flow_databladeVALIDATION_Blade_7.dat|
|                                   |                      (1090.2 MB/s)|
|Paraview                           |volume_flow_databladeVALIDATION_Blade_7.vtu|
|                                   |                     (635.434 MB/s)|
|Paraview surface                   |surface_flowdatabladeVALIDATION_Blade_7.vtu|
|                                   |                     (79.6689 MB/s)|
|SU2 ASCII restart                  |restart_flow_databladeVALIDATION_Blade_7.csv|
|                                   |                     (20.4616 MB/s)|
|CSV file                           |surface_flowdatabladeVALIDATION_Blade_7.csv|
|                                   |                     (18.0865 MB/s)|
+-----------------------------------------------------------------------+
+--------------------------------------+
|  Inner_Iter|   Time(sec)|    rms[Rho]|
+--------------------------------------+
|        1560|  1.3688e-01|   -4.948139|
|        1570|  1.3657e-01|   -4.949767|
|        1580|  1.3631e-01|   -4.984054|
|        1590|  1.3610e-01|   -4.959961|
|        1600|  1.3569e-01|   -5.034253|
+-----------------------------------------------------------------------+
|        File Writing Summary       |              Filename             |
+-----------------------------------------------------------------------+
|SU2 binary restart                 |restart_flow_databladeVALIDATION_Blade_7.dat|
|                                   |                       (12198 MB/s)|
|Paraview                           |volume_flow_databladeVALIDATION_Blade_7.vtu|
|                                   |                     (964.739 MB/s)|
|Paraview surface                   |surface_flowdatabladeVALIDATION_Blade_7.vtu|
|                                   |                     (85.0092 MB/s)|
|SU2 ASCII restart                  |restart_flow_databladeVALIDATION_Blade_7.csv|
|                                   |                     (19.9705 MB/s)|
|CSV file                           |surface_flowdatabladeVALIDATION_Blade_7.csv|
|                                   |                     (17.4967 MB/s)|
+-----------------------------------------------------------------------+
+--------------------------------------+
|  Inner_Iter|   Time(sec)|    rms[Rho]|
+--------------------------------------+
|        1610|  1.3702e-01|   -5.022870|
|        1620|  1.3685e-01|   -5.005052|
|        1630|  1.3665e-01|   -5.076550|
|        1640|  1.3629e-01|   -5.107634|
|        1650|  1.3595e-01|   -5.068508|
+-----------------------------------------------------------------------+
|        File Writing Summary       |              Filename             |
+-----------------------------------------------------------------------+
|SU2 binary restart                 |restart_flow_databladeVALIDATION_Blade_7.dat|
|                                   |                     (10792.8 MB/s)|
|Paraview                           |volume_flow_databladeVALIDATION_Blade_7.vtu|
|                                   |                     (968.785 MB/s)|
|Paraview surface                   |surface_flowdatabladeVALIDATION_Blade_7.vtu|
|                                   |                     (100.277 MB/s)|
|SU2 ASCII restart                  |restart_flow_databladeVALIDATION_Blade_7.csv|
|                                   |                     (20.4464 MB/s)|
|CSV file                           |surface_flowdatabladeVALIDATION_Blade_7.csv|
|                                   |                     (19.4594 MB/s)|
+-----------------------------------------------------------------------+
+--------------------------------------+
|  Inner_Iter|   Time(sec)|    rms[Rho]|
+--------------------------------------+
|        1660|  1.3712e-01|   -5.013318|
|        1670|  1.3721e-01|   -5.081152|
|        1680|  1.3720e-01|   -5.077695|
|        1690|  1.3702e-01|   -5.048163|
|        1700|  1.3687e-01|   -5.098075|
+-----------------------------------------------------------------------+
|        File Writing Summary       |              Filename             |
+-----------------------------------------------------------------------+
|SU2 binary restart                 |restart_flow_databladeVALIDATION_Blade_7.dat|
|                                   |                     (5719.76 MB/s)|
|Paraview                           |volume_flow_databladeVALIDATION_Blade_7.vtu|
|                                   |                     (187.387 MB/s)|
|Paraview surface                   |surface_flowdatabladeVALIDATION_Blade_7.vtu|
|                                   |                     (47.8991 MB/s)|
|SU2 ASCII restart                  |restart_flow_databladeVALIDATION_Blade_7.csv|
|                                   |                     (20.2845 MB/s)|
|CSV file                           |surface_flowdatabladeVALIDATION_Blade_7.csv|
|                                   |                     (19.8627 MB/s)|
+-----------------------------------------------------------------------+
+--------------------------------------+
|  Inner_Iter|   Time(sec)|    rms[Rho]|
+--------------------------------------+
|        1710|  1.3797e-01|   -5.147344|
|        1720|  1.3762e-01|   -5.134978|
|        1730|  1.3736e-01|   -5.052868|
|        1740|  1.3699e-01|   -5.122658|
|        1750|  1.3662e-01|   -5.124205|
+-----------------------------------------------------------------------+
|        File Writing Summary       |              Filename             |
+-----------------------------------------------------------------------+
|SU2 binary restart                 |restart_flow_databladeVALIDATION_Blade_7.dat|
|                                   |                     (8531.32 MB/s)|
|Paraview                           |volume_flow_databladeVALIDATION_Blade_7.vtu|
|                                   |                     (879.668 MB/s)|
|Paraview surface                   |surface_flowdatabladeVALIDATION_Blade_7.vtu|
|                                   |                     (84.8536 MB/s)|
|SU2 ASCII restart                  |restart_flow_databladeVALIDATION_Blade_7.csv|
|                                   |                     (19.7945 MB/s)|
|CSV file                           |surface_flowdatabladeVALIDATION_Blade_7.csv|
|                                   |                      (19.238 MB/s)|
+-----------------------------------------------------------------------+
+--------------------------------------+
|  Inner_Iter|   Time(sec)|    rms[Rho]|
+--------------------------------------+
|        1760|  1.3779e-01|   -5.084948|
|        1770|  1.3754e-01|   -5.099194|
|        1780|  1.3719e-01|   -5.177794|
|        1790|  1.3690e-01|   -5.180354|
|        1800|  1.3660e-01|   -5.125424|
+-----------------------------------------------------------------------+
|        File Writing Summary       |              Filename             |
+-----------------------------------------------------------------------+
|SU2 binary restart                 |restart_flow_databladeVALIDATION_Blade_7.dat|
|                                   |                     (11422.6 MB/s)|
|Paraview                           |volume_flow_databladeVALIDATION_Blade_7.vtu|
|                                   |                     (824.441 MB/s)|
|Paraview surface                   |surface_flowdatabladeVALIDATION_Blade_7.vtu|
|                                   |                     (51.1969 MB/s)|
|SU2 ASCII restart                  |restart_flow_databladeVALIDATION_Blade_7.csv|
|                                   |                     (20.4211 MB/s)|
|CSV file                           |surface_flowdatabladeVALIDATION_Blade_7.csv|
|                                   |                     (18.8119 MB/s)|
+-----------------------------------------------------------------------+
+--------------------------------------+
|  Inner_Iter|   Time(sec)|    rms[Rho]|
+--------------------------------------+
|        1810|  1.3768e-01|   -5.158611|
|        1820|  1.3739e-01|   -5.150955|
|        1830|  1.3708e-01|   -5.124612|
|        1840|  1.3684e-01|   -5.155916|
|        1850|  1.3656e-01|   -5.218556|
+-----------------------------------------------------------------------+
|        File Writing Summary       |              Filename             |
+-----------------------------------------------------------------------+
|SU2 binary restart                 |restart_flow_databladeVALIDATION_Blade_7.dat|
|                                   |                     (8582.36 MB/s)|
|Paraview                           |volume_flow_databladeVALIDATION_Blade_7.vtu|
|                                   |                     (851.455 MB/s)|
|Paraview surface                   |surface_flowdatabladeVALIDATION_Blade_7.vtu|
|                                   |                     (73.1317 MB/s)|
|SU2 ASCII restart                  |restart_flow_databladeVALIDATION_Blade_7.csv|
|                                   |                     (20.4758 MB/s)|
|CSV file                           |surface_flowdatabladeVALIDATION_Blade_7.csv|
|                                   |                     (20.6149 MB/s)|
+-----------------------------------------------------------------------+
+--------------------------------------+
|  Inner_Iter|   Time(sec)|    rms[Rho]|
+--------------------------------------+
|        1860|  1.3756e-01|   -5.226893|
|        1870|  1.3731e-01|   -5.194218|
|        1880|  1.3714e-01|   -5.227226|
|        1890|  1.3685e-01|   -5.209436|
|        1900|  1.3659e-01|   -5.174419|
+-----------------------------------------------------------------------+
|        File Writing Summary       |              Filename             |
+-----------------------------------------------------------------------+
|SU2 binary restart                 |restart_flow_databladeVALIDATION_Blade_7.dat|
|                                   |                      (8002.3 MB/s)|
|Paraview                           |volume_flow_databladeVALIDATION_Blade_7.vtu|
|                                   |                     (298.791 MB/s)|
|Paraview surface                   |surface_flowdatabladeVALIDATION_Blade_7.vtu|
|                                   |                     (86.0468 MB/s)|
|SU2 ASCII restart                  |restart_flow_databladeVALIDATION_Blade_7.csv|
|                                   |                     (20.4764 MB/s)|
|CSV file                           |surface_flowdatabladeVALIDATION_Blade_7.csv|
|                                   |                     (19.1392 MB/s)|
+-----------------------------------------------------------------------+
+--------------------------------------+
|  Inner_Iter|   Time(sec)|    rms[Rho]|
+--------------------------------------+
|        1910|  1.3757e-01|   -5.224975|
|        1920|  1.3724e-01|   -5.255789|
|        1930|  1.3695e-01|   -5.260410|
|        1940|  1.3668e-01|   -5.234752|
|        1950|  1.3638e-01|   -5.290358|
+-----------------------------------------------------------------------+
|        File Writing Summary       |              Filename             |
+-----------------------------------------------------------------------+
|SU2 binary restart                 |restart_flow_databladeVALIDATION_Blade_7.dat|
|                                   |                     (10749.2 MB/s)|
|Paraview                           |volume_flow_databladeVALIDATION_Blade_7.vtu|
|                                   |                     (753.283 MB/s)|
|Paraview surface                   |surface_flowdatabladeVALIDATION_Blade_7.vtu|
|                                   |                     (85.1774 MB/s)|
|SU2 ASCII restart                  |restart_flow_databladeVALIDATION_Blade_7.csv|
|                                   |                     (20.7494 MB/s)|
|CSV file                           |surface_flowdatabladeVALIDATION_Blade_7.csv|
|                                   |                     (18.9261 MB/s)|
+-----------------------------------------------------------------------+
+--------------------------------------+
|  Inner_Iter|   Time(sec)|    rms[Rho]|
+--------------------------------------+
|        1960|  1.3728e-01|   -5.277329|
|        1970|  1.3699e-01|   -5.239626|
|        1980|  1.3671e-01|   -5.251065|
|        1990|  1.3638e-01|   -5.292496|
|        2000|  1.3618e-01|   -5.260572|
+-----------------------------------------------------------------------+
|        File Writing Summary       |              Filename             |
+-----------------------------------------------------------------------+
|SU2 binary restart                 |restart_flow_databladeVALIDATION_Blade_7.dat|
|                                   |                     (10565.6 MB/s)|
|Paraview                           |volume_flow_databladeVALIDATION_Blade_7.vtu|
|                                   |                     (1015.29 MB/s)|
|Paraview surface                   |surface_flowdatabladeVALIDATION_Blade_7.vtu|
|                                   |                     (90.1357 MB/s)|
|SU2 ASCII restart                  |restart_flow_databladeVALIDATION_Blade_7.csv|
|                                   |                     (20.5819 MB/s)|
|CSV file                           |surface_flowdatabladeVALIDATION_Blade_7.csv|
|                                   |                     (17.5387 MB/s)|
+-----------------------------------------------------------------------+
+--------------------------------------+
|  Inner_Iter|   Time(sec)|    rms[Rho]|
+--------------------------------------+
|        2010|  1.3719e-01|   -5.299933|
|        2020|  1.3700e-01|   -5.293320|
|        2030|  1.3687e-01|   -5.311373|
|        2040|  1.3673e-01|   -5.359486|
|        2050|  1.3644e-01|   -5.419117|
+-----------------------------------------------------------------------+
|        File Writing Summary       |              Filename             |
+-----------------------------------------------------------------------+
|SU2 binary restart                 |restart_flow_databladeVALIDATION_Blade_7.dat|
|                                   |                     (9261.56 MB/s)|
|Paraview                           |volume_flow_databladeVALIDATION_Blade_7.vtu|
|                                   |                      (943.39 MB/s)|
|Paraview surface                   |surface_flowdatabladeVALIDATION_Blade_7.vtu|
|                                   |                     (96.7673 MB/s)|
|SU2 ASCII restart                  |restart_flow_databladeVALIDATION_Blade_7.csv|
|                                   |                     (21.1179 MB/s)|
|CSV file                           |surface_flowdatabladeVALIDATION_Blade_7.csv|
|                                   |                      (19.326 MB/s)|
+-----------------------------------------------------------------------+
+--------------------------------------+
|  Inner_Iter|   Time(sec)|    rms[Rho]|
+--------------------------------------+
|        2060|  1.3730e-01|   -5.403224|
|        2070|  1.3703e-01|   -5.411822|
|        2080|  1.3672e-01|   -5.432774|
|        2090|  1.3644e-01|   -5.419913|
|        2100|  1.3619e-01|   -5.421232|
+-----------------------------------------------------------------------+
|        File Writing Summary       |              Filename             |
+-----------------------------------------------------------------------+
|SU2 binary restart                 |restart_flow_databladeVALIDATION_Blade_7.dat|
|                                   |                     (12014.4 MB/s)|
|Paraview                           |volume_flow_databladeVALIDATION_Blade_7.vtu|
|                                   |                     (964.604 MB/s)|
|Paraview surface                   |surface_flowdatabladeVALIDATION_Blade_7.vtu|
|                                   |                     (95.9394 MB/s)|
|SU2 ASCII restart                  |restart_flow_databladeVALIDATION_Blade_7.csv|
|                                   |                     (20.7373 MB/s)|
|CSV file                           |surface_flowdatabladeVALIDATION_Blade_7.csv|
|                                   |                     (18.8777 MB/s)|
+-----------------------------------------------------------------------+
+--------------------------------------+
|  Inner_Iter|   Time(sec)|    rms[Rho]|
+--------------------------------------+
|        2110|  1.3703e-01|   -5.455364|
|        2120|  1.3674e-01|   -5.462404|
|        2130|  1.3647e-01|   -5.454508|
|        2140|  1.3620e-01|   -5.465428|
|        2150|  1.3591e-01|   -5.483159|
+-----------------------------------------------------------------------+
|        File Writing Summary       |              Filename             |
+-----------------------------------------------------------------------+
|SU2 binary restart                 |restart_flow_databladeVALIDATION_Blade_7.dat|
|                                   |                     (10376.9 MB/s)|
|Paraview                           |volume_flow_databladeVALIDATION_Blade_7.vtu|
|                                   |                     (958.067 MB/s)|
|Paraview surface                   |surface_flowdatabladeVALIDATION_Blade_7.vtu|
|                                   |                     (107.426 MB/s)|
|SU2 ASCII restart                  |restart_flow_databladeVALIDATION_Blade_7.csv|
|                                   |                     (20.3421 MB/s)|
|CSV file                           |surface_flowdatabladeVALIDATION_Blade_7.csv|
|                                   |                     (15.7146 MB/s)|
+-----------------------------------------------------------------------+
+--------------------------------------+
|  Inner_Iter|   Time(sec)|    rms[Rho]|
+--------------------------------------+
|        2160|  1.3683e-01|   -5.480142|
|        2170|  1.3669e-01|   -5.464571|
|        2180|  1.3649e-01|   -5.489271|
|        2190|  1.3626e-01|   -5.496014|
|        2200|  1.3601e-01|   -5.491573|
+-----------------------------------------------------------------------+
|        File Writing Summary       |              Filename             |
+-----------------------------------------------------------------------+
|SU2 binary restart                 |restart_flow_databladeVALIDATION_Blade_7.dat|
|                                   |                     (3882.31 MB/s)|
|Paraview                           |volume_flow_databladeVALIDATION_Blade_7.vtu|
|                                   |                     (841.129 MB/s)|
|Paraview surface                   |surface_flowdatabladeVALIDATION_Blade_7.vtu|
|                                   |                     (41.4508 MB/s)|
|SU2 ASCII restart                  |restart_flow_databladeVALIDATION_Blade_7.csv|
|                                   |                     (20.5666 MB/s)|
|CSV file                           |surface_flowdatabladeVALIDATION_Blade_7.csv|
|                                   |                       (15.73 MB/s)|
+-----------------------------------------------------------------------+
+--------------------------------------+
|  Inner_Iter|   Time(sec)|    rms[Rho]|
+--------------------------------------+
|        2210|  1.3689e-01|   -5.510897|
|        2220|  1.3661e-01|   -5.522295|
|        2230|  1.3648e-01|   -5.501121|
|        2240|  1.3637e-01|   -5.516619|
|        2250|  1.3626e-01|   -5.530878|
+-----------------------------------------------------------------------+
|        File Writing Summary       |              Filename             |
+-----------------------------------------------------------------------+
|SU2 binary restart                 |restart_flow_databladeVALIDATION_Blade_7.dat|
|                                   |                     (8602.41 MB/s)|
|Paraview                           |volume_flow_databladeVALIDATION_Blade_7.vtu|
|                                   |                      (668.55 MB/s)|
|Paraview surface                   |surface_flowdatabladeVALIDATION_Blade_7.vtu|
|                                   |                      (53.119 MB/s)|
|SU2 ASCII restart                  |restart_flow_databladeVALIDATION_Blade_7.csv|
|                                   |                     (20.1949 MB/s)|
|CSV file                           |surface_flowdatabladeVALIDATION_Blade_7.csv|
|                                   |                     (20.4806 MB/s)|
+-----------------------------------------------------------------------+
+--------------------------------------+
|  Inner_Iter|   Time(sec)|    rms[Rho]|
+--------------------------------------+
|        2260|  1.3719e-01|   -5.548206|
|        2270|  1.3707e-01|   -5.565282|
|        2280|  1.3692e-01|   -5.579003|
|        2290|  1.3673e-01|   -5.592841|
|        2300|  1.3648e-01|   -5.637443|
+-----------------------------------------------------------------------+
|        File Writing Summary       |              Filename             |
+-----------------------------------------------------------------------+
|SU2 binary restart                 |restart_flow_databladeVALIDATION_Blade_7.dat|
|                                   |                     (13568.3 MB/s)|
|Paraview                           |volume_flow_databladeVALIDATION_Blade_7.vtu|
|                                   |                     (736.687 MB/s)|
|Paraview surface                   |surface_flowdatabladeVALIDATION_Blade_7.vtu|
|                                   |                     (80.0844 MB/s)|
|SU2 ASCII restart                  |restart_flow_databladeVALIDATION_Blade_7.csv|
|                                   |                     (20.0995 MB/s)|
|CSV file                           |surface_flowdatabladeVALIDATION_Blade_7.csv|
|                                   |                     (17.1418 MB/s)|
+-----------------------------------------------------------------------+
+--------------------------------------+
|  Inner_Iter|   Time(sec)|    rms[Rho]|
+--------------------------------------+
|        2310|  1.3740e-01|   -5.635197|
|        2320|  1.3725e-01|   -5.617704|
|        2330|  1.3707e-01|   -5.654363|
|        2340|  1.3682e-01|   -5.662079|
|        2350|  1.3668e-01|   -5.654862|
+-----------------------------------------------------------------------+
|        File Writing Summary       |              Filename             |
+-----------------------------------------------------------------------+
|SU2 binary restart                 |restart_flow_databladeVALIDATION_Blade_7.dat|
|                                   |                     (10994.1 MB/s)|
|Paraview                           |volume_flow_databladeVALIDATION_Blade_7.vtu|
|                                   |                     (719.576 MB/s)|
|Paraview surface                   |surface_flowdatabladeVALIDATION_Blade_7.vtu|
|                                   |                     (61.5738 MB/s)|
[...]
|        3590|  1.3508e-01|   -6.664470|
|        3600|  1.3491e-01|   -6.658956|
+-----------------------------------------------------------------------+
|        File Writing Summary       |              Filename             |
+-----------------------------------------------------------------------+
|SU2 binary restart                 |restart_flow_databladeVALIDATION_Blade_7.dat|
|                                   |                     (11943.6 MB/s)|
|Paraview                           |volume_flow_databladeVALIDATION_Blade_7.vtu|
|                                   |                      (1010.9 MB/s)|
|Paraview surface                   |surface_flowdatabladeVALIDATION_Blade_7.vtu|
|                                   |                     (104.024 MB/s)|
|SU2 ASCII restart                  |restart_flow_databladeVALIDATION_Blade_7.csv|
|                                   |                     (21.3483 MB/s)|
|CSV file                           |surface_flowdatabladeVALIDATION_Blade_7.csv|
|                                   |                     (21.6026 MB/s)|
+-----------------------------------------------------------------------+
+--------------------------------------+
|  Inner_Iter|   Time(sec)|    rms[Rho]|
+--------------------------------------+
|        3610|  1.3537e-01|   -6.635615|
|        3620|  1.3516e-01|   -6.665757|
|        3630|  1.3495e-01|   -6.666787|
|        3640|  1.3476e-01|   -6.646187|
|        3650|  1.3458e-01|   -6.652276|
+-----------------------------------------------------------------------+
|        File Writing Summary       |              Filename             |
+-----------------------------------------------------------------------+
|SU2 binary restart                 |restart_flow_databladeVALIDATION_Blade_7.dat|
|                                   |                     (12277.4 MB/s)|
|Paraview                           |volume_flow_databladeVALIDATION_Blade_7.vtu|
|                                   |                     (1080.54 MB/s)|
|Paraview surface                   |surface_flowdatabladeVALIDATION_Blade_7.vtu|
|                                   |                     (105.591 MB/s)|
|SU2 ASCII restart                  |restart_flow_databladeVALIDATION_Blade_7.csv|
|                                   |                     (21.4606 MB/s)|
|CSV file                           |surface_flowdatabladeVALIDATION_Blade_7.csv|
|                                   |                      (22.277 MB/s)|
+-----------------------------------------------------------------------+
+--------------------------------------+
|  Inner_Iter|   Time(sec)|    rms[Rho]|
+--------------------------------------+
|        3660|  1.3500e-01|   -6.689334|
|        3670|  1.3479e-01|   -6.698555|
|        3680|  1.3461e-01|   -6.683557|
|        3690|  1.3443e-01|   -6.691111|
|        3700|  1.3425e-01|   -6.675486|
+-----------------------------------------------------------------------+
|        File Writing Summary       |              Filename             |
+-----------------------------------------------------------------------+
|SU2 binary restart                 |restart_flow_databladeVALIDATION_Blade_7.dat|
|                                   |                     (12775.8 MB/s)|
|Paraview                           |volume_flow_databladeVALIDATION_Blade_7.vtu|
|                                   |                     (1044.01 MB/s)|
|Paraview surface                   |surface_flowdatabladeVALIDATION_Blade_7.vtu|
|                                   |                     (126.934 MB/s)|
|SU2 ASCII restart                  |restart_flow_databladeVALIDATION_Blade_7.csv|
|                                   |                     (21.6642 MB/s)|
|CSV file                           |surface_flowdatabladeVALIDATION_Blade_7.csv|
|                                   |                     (22.2199 MB/s)|
+-----------------------------------------------------------------------+
+--------------------------------------+
|  Inner_Iter|   Time(sec)|    rms[Rho]|
+--------------------------------------+
|        3710|  1.3469e-01|   -6.687341|
|        3720|  1.3448e-01|   -6.716883|
|        3730|  1.3429e-01|   -6.725726|
|        3740|  1.3411e-01|   -6.729910|
|        3750|  1.3393e-01|   -6.748365|
+-----------------------------------------------------------------------+
|        File Writing Summary       |              Filename             |
+-----------------------------------------------------------------------+
|SU2 binary restart                 |restart_flow_databladeVALIDATION_Blade_7.dat|
|                                   |                     (11434.7 MB/s)|
|Paraview                           |volume_flow_databladeVALIDATION_Blade_7.vtu|
|                                   |                     (843.081 MB/s)|
|Paraview surface                   |surface_flowdatabladeVALIDATION_Blade_7.vtu|
|                                   |                     (98.5513 MB/s)|
|SU2 ASCII restart                  |restart_flow_databladeVALIDATION_Blade_7.csv|
|                                   |                     (21.2244 MB/s)|
|CSV file                           |surface_flowdatabladeVALIDATION_Blade_7.csv|
|                                   |                     (21.3242 MB/s)|
+-----------------------------------------------------------------------+
+--------------------------------------+
|  Inner_Iter|   Time(sec)|    rms[Rho]|
+--------------------------------------+
|        3760|  1.3435e-01|   -6.760791|
|        3770|  1.3418e-01|   -6.733627|
|        3780|  1.3401e-01|   -6.722703|
|        3790|  1.3381e-01|   -6.754172|
|        3800|  1.3363e-01|   -6.758589|
+-----------------------------------------------------------------------+
|        File Writing Summary       |              Filename             |
+-----------------------------------------------------------------------+
|SU2 binary restart                 |restart_flow_databladeVALIDATION_Blade_7.dat|
|                                   |                      (9119.3 MB/s)|
|Paraview                           |volume_flow_databladeVALIDATION_Blade_7.vtu|
|                                   |                     (1010.31 MB/s)|
|Paraview surface                   |surface_flowdatabladeVALIDATION_Blade_7.vtu|
|                                   |                     (96.3535 MB/s)|
|SU2 ASCII restart                  |restart_flow_databladeVALIDATION_Blade_7.csv|
|                                   |                     (20.0633 MB/s)|
|CSV file                           |surface_flowdatabladeVALIDATION_Blade_7.csv|
|                                   |                     (19.7509 MB/s)|
+-----------------------------------------------------------------------+
+--------------------------------------+
|  Inner_Iter|   Time(sec)|    rms[Rho]|
+--------------------------------------+
|        3810|  1.3419e-01|   -6.741559|
|        3820|  1.3405e-01|   -6.778303|
|        3830|  1.3389e-01|   -6.794385|
|        3840|  1.3375e-01|   -6.780063|
|        3850|  1.3363e-01|   -6.750519|
+-----------------------------------------------------------------------+
|        File Writing Summary       |              Filename             |
+-----------------------------------------------------------------------+
|SU2 binary restart                 |restart_flow_databladeVALIDATION_Blade_7.dat|
|                                   |                     (10663.6 MB/s)|
|Paraview                           |volume_flow_databladeVALIDATION_Blade_7.vtu|
|                                   |                     (847.202 MB/s)|
|Paraview surface                   |surface_flowdatabladeVALIDATION_Blade_7.vtu|
|                                   |                     (89.9944 MB/s)|
|SU2 ASCII restart                  |restart_flow_databladeVALIDATION_Blade_7.csv|
|                                   |                     (20.3241 MB/s)|
|CSV file                           |surface_flowdatabladeVALIDATION_Blade_7.csv|
|                                   |                     (19.3457 MB/s)|
+-----------------------------------------------------------------------+
+--------------------------------------+
|  Inner_Iter|   Time(sec)|    rms[Rho]|
+--------------------------------------+
|        3860|  1.3410e-01|   -6.774671|
|        3870|  1.3393e-01|   -6.768497|
|        3880|  1.3377e-01|   -6.815878|
|        3890|  1.3362e-01|   -6.834070|
|        3900|  1.3348e-01|   -6.831714|
+-----------------------------------------------------------------------+
|        File Writing Summary       |              Filename             |
+-----------------------------------------------------------------------+
|SU2 binary restart                 |restart_flow_databladeVALIDATION_Blade_7.dat|
|                                   |                     (9557.55 MB/s)|
|Paraview                           |volume_flow_databladeVALIDATION_Blade_7.vtu|
|                                   |                     (475.172 MB/s)|
|Paraview surface                   |surface_flowdatabladeVALIDATION_Blade_7.vtu|
|                                   |                      (64.695 MB/s)|
|SU2 ASCII restart                  |restart_flow_databladeVALIDATION_Blade_7.csv|
|                                   |                     (21.2042 MB/s)|
|CSV file                           |surface_flowdatabladeVALIDATION_Blade_7.csv|
|                                   |                     (18.0207 MB/s)|
+-----------------------------------------------------------------------+
+--------------------------------------+
|  Inner_Iter|   Time(sec)|    rms[Rho]|
+--------------------------------------+
|        3910|  1.3394e-01|   -6.828968|
|        3920|  1.3375e-01|   -6.850480|
|        3930|  1.3360e-01|   -6.825768|
|        3940|  1.3355e-01|   -6.808373|
|        3950|  1.3342e-01|   -6.836891|
+-----------------------------------------------------------------------+
|        File Writing Summary       |              Filename             |
+-----------------------------------------------------------------------+
|SU2 binary restart                 |restart_flow_databladeVALIDATION_Blade_7.dat|
|                                   |                     (11887.5 MB/s)|
|Paraview                           |volume_flow_databladeVALIDATION_Blade_7.vtu|
|                                   |                     (688.361 MB/s)|
|Paraview surface                   |surface_flowdatabladeVALIDATION_Blade_7.vtu|
|                                   |                     (35.1514 MB/s)|
|SU2 ASCII restart                  |restart_flow_databladeVALIDATION_Blade_7.csv|
|                                   |                     (19.1134 MB/s)|
|CSV file                           |surface_flowdatabladeVALIDATION_Blade_7.csv|
|                                   |                     (17.4267 MB/s)|
+-----------------------------------------------------------------------+
+--------------------------------------+
|  Inner_Iter|   Time(sec)|    rms[Rho]|
+--------------------------------------+
|        3960|  1.3393e-01|   -6.855487|
|        3970|  1.3380e-01|   -6.839700|
|        3980|  1.3364e-01|   -6.859847|
|        3990|  1.3346e-01|   -6.885685|
|        4000|  1.3328e-01|   -6.872083|
+-----------------------------------------------------------------------+
|        File Writing Summary       |              Filename             |
+-----------------------------------------------------------------------+
|SU2 binary restart                 |restart_flow_databladeVALIDATION_Blade_7.dat|
|                                   |                     (10851.3 MB/s)|
|Paraview                           |volume_flow_databladeVALIDATION_Blade_7.vtu|
|                                   |                     (952.702 MB/s)|
|Paraview surface                   |surface_flowdatabladeVALIDATION_Blade_7.vtu|
|                                   |                     (118.557 MB/s)|
|SU2 ASCII restart                  |restart_flow_databladeVALIDATION_Blade_7.csv|
|                                   |                     (21.6392 MB/s)|
|CSV file                           |surface_flowdatabladeVALIDATION_Blade_7.csv|
|                                   |                     (21.2918 MB/s)|
+-----------------------------------------------------------------------+
+--------------------------------------+
|  Inner_Iter|   Time(sec)|    rms[Rho]|
+--------------------------------------+
|        4010|  1.3370e-01|   -6.826361|
|        4020|  1.3356e-01|   -6.854479|
|        4030|  1.3343e-01|   -6.893476|
|        4040|  1.3330e-01|   -6.898244|
|        4050|  1.3314e-01|   -6.905714|
+-----------------------------------------------------------------------+
|        File Writing Summary       |              Filename             |
+-----------------------------------------------------------------------+
|SU2 binary restart                 |restart_flow_databladeVALIDATION_Blade_7.dat|
|                                   |                     (10167.9 MB/s)|
|Paraview                           |volume_flow_databladeVALIDATION_Blade_7.vtu|
|                                   |                      (1036.9 MB/s)|
|Paraview surface                   |surface_flowdatabladeVALIDATION_Blade_7.vtu|
|                                   |                     (95.7336 MB/s)|
|SU2 ASCII restart                  |restart_flow_databladeVALIDATION_Blade_7.csv|
|                                   |                     (21.5783 MB/s)|
|CSV file                           |surface_flowdatabladeVALIDATION_Blade_7.csv|
|                                   |                     (19.7064 MB/s)|
+-----------------------------------------------------------------------+
+--------------------------------------+
|  Inner_Iter|   Time(sec)|    rms[Rho]|
+--------------------------------------+
|        4060|  1.3354e-01|   -6.915804|
|        4070|  1.3336e-01|   -6.952398|
|        4080|  1.3318e-01|   -6.957541|
|        4090|  1.3302e-01|   -6.954060|
|        4100|  1.3286e-01|   -6.970077|
+-----------------------------------------------------------------------+
|        File Writing Summary       |              Filename             |
+-----------------------------------------------------------------------+
|SU2 binary restart                 |restart_flow_databladeVALIDATION_Blade_7.dat|
|                                   |                     (12487.4 MB/s)|
|Paraview                           |volume_flow_databladeVALIDATION_Blade_7.vtu|
|                                   |                     (1052.67 MB/s)|
|Paraview surface                   |surface_flowdatabladeVALIDATION_Blade_7.vtu|
|                                   |                     (97.5544 MB/s)|
|SU2 ASCII restart                  |restart_flow_databladeVALIDATION_Blade_7.csv|
|                                   |                     (21.1175 MB/s)|
|CSV file                           |surface_flowdatabladeVALIDATION_Blade_7.csv|
|                                   |                     (21.2191 MB/s)|
+-----------------------------------------------------------------------+
+--------------------------------------+
|  Inner_Iter|   Time(sec)|    rms[Rho]|
+--------------------------------------+
|        4110|  1.3324e-01|   -6.983672|
|        4120|  1.3308e-01|   -6.949327|
|        4130|  1.3293e-01|   -6.937120|
|        4140|  1.3275e-01|   -6.982034|
|        4150|  1.3258e-01|   -6.997496|
+-----------------------------------------------------------------------+
|        File Writing Summary       |              Filename             |
+-----------------------------------------------------------------------+
|SU2 binary restart                 |restart_flow_databladeVALIDATION_Blade_7.dat|
|                                   |                     (12544.4 MB/s)|
|Paraview                           |volume_flow_databladeVALIDATION_Blade_7.vtu|
|                                   |                     (1028.65 MB/s)|
|Paraview surface                   |surface_flowdatabladeVALIDATION_Blade_7.vtu|
|                                   |                     (99.9693 MB/s)|
|SU2 ASCII restart                  |restart_flow_databladeVALIDATION_Blade_7.csv|
|                                   |                     (20.4815 MB/s)|
|CSV file                           |surface_flowdatabladeVALIDATION_Blade_7.csv|
|                                   |                     (20.6274 MB/s)|
+-----------------------------------------------------------------------+
+--------------------------------------+
|  Inner_Iter|   Time(sec)|    rms[Rho]|
+--------------------------------------+
|        4151|  1.3314e-01|   -7.001949|

----------------------------- Solver Exit -------------------------------
All convergence criteria satisfied.
+-----------------------------------------------------------------------+
|      Convergence Field     |     Value    |   Criterion  |  Converged |
+-----------------------------------------------------------------------+
|                    rms[Rho]|      -7.00195|          < -7|         Yes|
+-----------------------------------------------------------------------+
-------------------------------------------------------------------------
+-----------------------------------------------------------------------+
|        File Writing Summary       |              Filename             |
+-----------------------------------------------------------------------+
|SU2 binary restart                 |restart_flow_databladeVALIDATION_Blade_7.dat|
|                                   |                     (13186.3 MB/s)|
|Paraview                           |volume_flow_databladeVALIDATION_Blade_7.vtu|
|                                   |                     (1025.29 MB/s)|
|Paraview surface                   |surface_flowdatabladeVALIDATION_Blade_7.vtu|
|                                   |                     (105.131 MB/s)|
|SU2 ASCII restart                  |restart_flow_databladeVALIDATION_Blade_7.csv|
|                                   |                      (21.422 MB/s)|
|CSV file                           |surface_flowdatabladeVALIDATION_Blade_7.csv|
|                                   |                     (20.8144 MB/s)|
+-----------------------------------------------------------------------+

--------------------------- Finalizing Solver ---------------------------
Deleted CNumerics container.
Deleted CIntegration container.
Deleted CSolver container.
Deleted CIteration container.
Deleted CInterface container.
Deleted CGeometry container.
Deleted CFreeFormDefBox class.
Deleted CSurfaceMovement class.
Deleted CVolumetricMovement class.
Deleted CConfig container.
Deleted nInst container.
Deleted COutput class.
-------------------------------------------------------------------------


-------------------------- Performance Summary --------------------------
Simulation totals:
   Wall-clock time (hrs):    0.154347 |            Core-hrs:     1.85217
                   Cores:          12 |          DOFs/point:           5
             Points/core:     5112.17 |   Ghost points/core:     157.167
 Ghost/Owned Point Ratio:   0.0307437 | 

Preprocessing phase:
       Preproc. Time (s):    0.544818 |   Preproc. Time (%):   0.0980503

Compute phase:
        Compute Time (s):     552.803 |    Compute Time (%):     99.4874
         Iteration count:        4152 |         Avg. s/iter:    0.133141
     Core-s/iter/Mpoints:     25.2672 |           Mpoints/s:    0.474924

Output phase:
         Output Time (s):     2.30321 |     Output Time (%):    0.414507
            Output count:           1 |       Avg. s/output:     2.30321
 Restart Aggr. BW (MB/s):      840121 |           MB/s/core:       70010
-------------------------------------------------------------------------


------------------------- Exit Success (SU2_CFD) ------------------------

