
-------------------------------------------------------------------------
|    ___ _   _ ___                                                      |
|   / __| | | |_  )   Release 8.0.1 "Harrier"                           |
|   \__ \ |_| |/ /                                                      |
|   |___/\___//___|   Suite (Computational Fluid Dynamics Code)         |
|                                                                       |
-------------------------------------------------------------------------
| SU2 Project Website: https://su2code.github.io                        |
|                                                                       |
| The SU2 Project is maintained by the SU2 Foundation                   |
| (http://su2foundation.org)                                            |
-------------------------------------------------------------------------
| Copyright 2012-2024, SU2 Contributors                                 |
|                                                                       |
| SU2 is free software; you can redistribute it and/or                  |
| modify it under the terms of the GNU Lesser General Public            |
| License as published by the Free Software Foundation; either          |
| version 2.1 of the License, or (at your option) any later version.    |
|                                                                       |
| SU2 is distributed in the hope that it will be useful,                |
| but WITHOUT ANY WARRANTY; without even the implied warranty of        |
| MERCHANTABILITY or FITNESS FOR A PARTICULAR PURPOSE. See the GNU      |
| Lesser General Public License for more details.                       |
|                                                                       |
| You should have received a copy of the GNU Lesser General Public      |
| License along with SU2. If not, see <http://www.gnu.org/licenses/>.   |
-------------------------------------------------------------------------

Parsing config file for zone 0

----------------- Physical Case Definition ( Zone 0 ) -------------------
Compressible RANS equations.
Turbulence model: Spalart-Allmaras-noft2-BCM
Hybrid RANS/LES: No Hybrid RANS/LES
Mach number: 0.667.
Angle of attack (AoA): -37 deg, and angle of sideslip (AoS): 0 deg.
Reynolds number: 600000. Reference length 1.0018.
No restart solution, use the values at infinity (freestream).
Dimensional simulation.
The reference area will be computed using y(2D) or z(3D) projection.
The semi-span will be computed using the max y(3D) value.
The reference length is 1.0018 m.
Reference origin for moment evaluation is (0, 0, 0).
Surface(s) where the force coefficients are evaluated: blade1.

Surface(s) plotted in the output file: blade1.
Surface(s) to be analyzed in detail: inlet, outlet, blade1.
Input mesh file name: cascade2D_databladeVALIDATION_Blade_23.su2

--------------- Space Numerical Integration ( Zone 0 ) ------------------
Jameson-Schmidt-Turkel scheme (2nd order in space) for the flow inviscid terms.
JST viscous coefficients (2nd & 4th): 0.5, 0.02.
The method includes a grid stretching correction (p = 0.3).
Scalar upwind solver for the turbulence model.
First order integration in space.
Average of gradients with correction (viscous flow terms).
Average of gradients with correction (viscous turbulence terms).
Gradient for upwind reconstruction: inverse-distance weighted Least-Squares.
Gradient for viscous and source terms: inverse-distance weighted Least-Squares.

--------------- Time Numerical Integration  ( Zone 0 ) ------------------
Local time stepping (steady state simulation).
Euler implicit method for the flow equations.
FGMRES is used for solving the linear system.
Using a LU-SGS preconditioning.
Convergence criteria of the linear solver: 0.0001.
Max number of linear iterations: 10.
V Multigrid Cycle, with 3 multigrid levels.
Damping factor for the residual restriction: 0.75.
Damping factor for the correction prolongation: 0.75.
CFL adaptation. Factor down: 0.1, factor up: 1.2,
                lower limit: 0.1, upper limit: 100,
                acceptable linear residual: 0.001.
+-------------------------------------------+
|  MG Level| Presmooth|PostSmooth|CorrectSmo|
+-------------------------------------------+
|         0|         1|         0|         1|
|         1|         2|         2|         2|
|         2|         3|         3|         3|
|         3|         3|         0|         0|
+-------------------------------------------+
Courant-Friedrichs-Lewy number:       12
Euler implicit time integration for the turbulence model.

------------------ Convergence Criteria  ( Zone 0 ) ---------------------
Maximum number of solver subiterations: 7000.
Begin convergence monitoring at iteration 500.
Residual minimum value: 1e-7.
Cauchy series min. value: 1e-10.
Number of Cauchy elements: 100.
Begin windowed time average at iteration 0.

-------------------- Output Information ( Zone 0 ) ----------------------
File writing frequency: 
+------------------------------------+
|                     File| Frequency|
+------------------------------------+
|                  RESTART|        50|
|                 PARAVIEW|        50|
|         SURFACE_PARAVIEW|        50|
|                      CSV|        50|
|              SURFACE_CSV|        50|
+------------------------------------+
Writing the convergence history file every 1 inner iterations.
Writing the screen convergence history every 10 inner iterations.
The tabular file format is CSV (.csv).
Convergence history file name: history_databladeVALIDATION_Blade_23.
Forces breakdown file name: forces_breakdown.dat.
Surface file name: surface_flowdatabladeVALIDATION_Blade_23.
Volume file name: volume_flow_databladeVALIDATION_Blade_23.
Restart file name: restart_flow_databladeVALIDATION_Blade_23.dat.

------------- Config File Boundary Information ( Zone 0 ) ---------------
+-----------------------------------------------------------------------+
|                        Marker Type|                        Marker Name|
+-----------------------------------------------------------------------+
|                  Periodic boundary|               symmetricWallsBOTTOM|
|                                   |                  symmetricWallsTOP|
+-----------------------------------------------------------------------+
|                     Inlet boundary|                              inlet|
+-----------------------------------------------------------------------+
|                    Outlet boundary|                             outlet|
+-----------------------------------------------------------------------+
|                     Heat flux wall|                             blade1|
|                                   |                             blade2|
+-----------------------------------------------------------------------+

-------------------- Output Preprocessing ( Zone 0 ) --------------------
  Info: Ignoring the following screen output fields:
  LINSOL_ITER_TRANS, LINSOL_RESIDUAL_TRANS
Screen output fields: INNER_ITER, WALL_TIME, RMS_DENSITY
  Info: Ignoring the following history output groups:
  RMS_TKE, RMS_DISSIPATION
History output group(s): INNER_ITER, WALL_TIME, RMS_DENSITY, RMS_MOMENTUM-X, RMS_ENERGY, LINSOL, CFL_NUMBER, FLOW_COEFF_SURF, AERO_COEFF_SURF
Convergence field(s): RMS_DENSITY
Warning: No (valid) fields chosen for time convergence monitoring. Time convergence monitoring inactive.
Volume output fields: COORDINATES, SOLUTION, PRIMITIVE, RESIDUAL, TIMESTEP, MESH_QUALITY, VORTEX_IDENTIFICATION

------------------- Geometry Preprocessing ( Zone 0 ) -------------------
Two dimensional problem.
60479 grid points before partitioning.
90651 volume elements before partitioning.
5 surface markers.
21 boundary elements in index 0 (Marker = inlet).
289 boundary elements in index 1 (Marker = symmetricWallsBOTTOM).
289 boundary elements in index 2 (Marker = symmetricWallsTOP).
58 boundary elements in index 3 (Marker = outlet).
1186 boundary elements in index 4 (Marker = blade1).
Executing the partitioning functions.
Building the graph adjacency structure.
Calling ParMETIS... graph partitioning complete (1514 edge cuts).
Distributing ParMETIS coloring.
Rebalancing vertices.
Rebalancing volume element connectivity.
Rebalancing markers and surface elements.
62389 vertices including ghost points. 
92155 interior elements including halo cells. 
63309 triangles.
28846 quadrilaterals.
Establishing MPI communication patterns.
Setting point connectivity.
Renumbering points (Reverse Cuthill McKee Ordering).
Recomputing point connectivity.
Setting element connectivity.
Checking the numerical grid orientation.
All volume elements are correctly orientend.
There has been a re-orientation of 913 LINE surface elements.
Identifying edges and vertices.
Setting the control volume structure.
Area of the computational grid: 2.71698.
Searching for the closest normal neighbors to the surfaces.
Storing a mapping from global to local point index.
Compute the surface curvature.
Max K: 180.502. Mean K: 5.17199. Standard deviation K: 18.445.
Checking for periodicity.
WARNING: Periodicity has been detected. Disabling multigrid. 
Computing mesh quality statistics for the dual control volumes.
+--------------------------------------------------------------+
|           Mesh Quality Metric|        Minimum|        Maximum|
+--------------------------------------------------------------+
|    Orthogonality Angle (deg.)|        64.8832|             90|
|     CV Face Area Aspect Ratio|        1.00003|         225.14|
|           CV Sub-Volume Ratio|              1|        48.1525|
+--------------------------------------------------------------+
Finding max control volume width.
Communicating number of neighbors.
Reference length = 1.01363 m.
Wetted area = 2.5394 m.
Area projection in the x-plane = 0.643546 m, y-plane = 1.01363 m.
Max. coordinate in the x-direction = 1.0099 m, y-direction = 0.389142 m.
Min. coordinate in the x-direction = -0.00373878 m, y-direction = -0.226813 m.
Matching the periodic boundary points for marker pair 1.
 Matched 580 points with a max distance of: 2.78487e-14.
Computing wall distances.

-------------------- Solver Preprocessing ( Zone 0 ) --------------------
Viscous flow: Computing pressure using the ideal gas law
based on the free-stream temperature and a density computed
from the Reynolds number.
Force coefficients computed using free-stream values.

-- Models:
+------------------------------------------------------------------------------+
|          Viscosity Model|        Conductivity Model|              Fluid Model|
+------------------------------------------------------------------------------+
|               SUTHERLAND|          CONSTANT_PRANDTL|                IDEAL_GAS|
+------------------------------------------------------------------------------+
-- Fluid properties:
+------------------------------------------------------------------------------+
|                  Name|    Dim. value|    Ref. value|      Unit|Non-dim. value|
+------------------------------------------------------------------------------+
|        Ref. Viscosity|     1.716e-05|             1|   N.s/m^2|     1.716e-05|
|      Sutherland Temp.|        273.15|             1|         K|        273.15|
|     Sutherland Const.|         110.4|             1|         K|         110.4|
+------------------------------------------------------------------------------+
|        Prandtl (Lam.)|             -|             -|         -|          0.72|
|       Prandtl (Turb.)|             -|             -|         -|           0.9|
+------------------------------------------------------------------------------+
|          Gas Constant|       287.058|             1|  N.m/kg.K|       287.058|
|      Spec. Heat Ratio|             -|             -|         -|           1.4|
+------------------------------------------------------------------------------+
-- Initial and free-stream conditions:
+------------------------------------------------------------------------------+
|                  Name|    Dim. value|    Ref. value|      Unit|Non-dim. value|
+------------------------------------------------------------------------------+
|       Static Pressure|       4110.91|             1|        Pa|       4110.91|
|               Density|     0.0477361|             1|    kg/m^3|     0.0477361|
|           Temperature|           300|             1|         K|           300|
|          Total Energy|        242112|             1|   m^2/s^2|        242112|
|            Velocity-X|       184.963|             1|       m/s|       184.963|
|            Velocity-Y|      -139.379|             1|       m/s|      -139.379|
|    Velocity Magnitude|       231.598|             1|       m/s|       231.598|
+------------------------------------------------------------------------------+
|             Viscosity|   1.84592e-05|             1|   N.s/m^2|   1.84592e-05|
|          Conductivity|             -|             1|   W/m^2.K|             -|
|     Turb. Kin. Energy|       98.5594|             1|   m^2/s^2|       98.5594|
|     Spec. Dissipation|   2.54879e+06|             1|       1/s|   2.54879e+06|
+------------------------------------------------------------------------------+
|           Mach Number|             -|             -|         -|         0.667|
|       Reynolds Number|             -|             -|         -|        600000|
+------------------------------------------------------------------------------+
Initialize Jacobian structure (Navier-Stokes). MG level: 0.
Initialize Jacobian structure (SA model).

------------------- Numerics Preprocessing ( Zone 0 ) -------------------

----------------- Integration Preprocessing ( Zone 0 ) ------------------

------------------- Iteration Preprocessing ( Zone 0 ) ------------------
Euler/Navier-Stokes/RANS fluid iteration.

------------------------------ Begin Solver -----------------------------

Simulation Run using the Single-zone Driver
WARNING: SU2 was not compiled for an AVX-capable architecture. Performance could be better,
         see https://su2code.github.io/docs_v7/Build-SU2-Linux-MacOS/#compiler-optimizations
+--------------------------------------+
|  Inner_Iter|   Time(sec)|    rms[Rho]|
+--------------------------------------+
|           0|  1.0553e-01|   -2.555311|
|          10|  7.0207e-02|   -3.191073|
|          20|  6.8346e-02|   -3.013138|
|          30|  6.7782e-02|   -3.015654|
|          40|  6.6640e-02|   -2.958169|
|          50|  6.7347e-02|   -2.959759|
+-----------------------------------------------------------------------+
|        File Writing Summary       |              Filename             |
+-----------------------------------------------------------------------+
|SU2 binary restart                 |restart_flow_databladeVALIDATION_Blade_23.dat|
|                                   |                       (10724 MB/s)|
|Paraview                           |volume_flow_databladeVALIDATION_Blade_23.vtu|
|                                   |                     (1007.58 MB/s)|
|Paraview surface                   |surface_flowdatabladeVALIDATION_Blade_23.vtu|
|                                   |                     (71.3779 MB/s)|
|SU2 ASCII restart                  |restart_flow_databladeVALIDATION_Blade_23.csv|
|                                   |                     (21.7873 MB/s)|
|CSV file                           |surface_flowdatabladeVALIDATION_Blade_23.csv|
|                                   |                     (20.7704 MB/s)|
+-----------------------------------------------------------------------+
+--------------------------------------+
|  Inner_Iter|   Time(sec)|    rms[Rho]|
+--------------------------------------+
|          60|  1.0485e-01|   -3.151272|
|          70|  9.8355e-02|   -3.218884|
|          80|  9.3922e-02|   -3.211335|
|          90|  9.0885e-02|   -3.025672|
|         100|  8.8780e-02|   -2.992555|
+-----------------------------------------------------------------------+
|        File Writing Summary       |              Filename             |
+-----------------------------------------------------------------------+
|SU2 binary restart                 |restart_flow_databladeVALIDATION_Blade_23.dat|
|                                   |                     (9116.71 MB/s)|
|Paraview                           |volume_flow_databladeVALIDATION_Blade_23.vtu|
|                                   |                     (975.745 MB/s)|
|Paraview surface                   |surface_flowdatabladeVALIDATION_Blade_23.vtu|
|                                   |                     (101.173 MB/s)|
|SU2 ASCII restart                  |restart_flow_databladeVALIDATION_Blade_23.csv|
|                                   |                     (21.4749 MB/s)|
|CSV file                           |surface_flowdatabladeVALIDATION_Blade_23.csv|
|                                   |                     (19.4649 MB/s)|
+-----------------------------------------------------------------------+
+--------------------------------------+
|  Inner_Iter|   Time(sec)|    rms[Rho]|
+--------------------------------------+
|         110|  1.0648e-01|   -3.000724|
|         120|  1.0299e-01|   -3.018158|
|         130|  1.0058e-01|   -3.008983|
|         140|  9.7838e-02|   -3.119305|
|         150|  9.5198e-02|   -3.122235|
+-----------------------------------------------------------------------+
|        File Writing Summary       |              Filename             |
+-----------------------------------------------------------------------+
|SU2 binary restart                 |restart_flow_databladeVALIDATION_Blade_23.dat|
|                                   |                     (12266.6 MB/s)|
|Paraview                           |volume_flow_databladeVALIDATION_Blade_23.vtu|
|                                   |                     (1004.13 MB/s)|
|Paraview surface                   |surface_flowdatabladeVALIDATION_Blade_23.vtu|
|                                   |                     (104.493 MB/s)|
|SU2 ASCII restart                  |restart_flow_databladeVALIDATION_Blade_23.csv|
|                                   |                     (21.6913 MB/s)|
|CSV file                           |surface_flowdatabladeVALIDATION_Blade_23.csv|
|                                   |                      (21.131 MB/s)|
+-----------------------------------------------------------------------+
+--------------------------------------+
|  Inner_Iter|   Time(sec)|    rms[Rho]|
+--------------------------------------+
|         160|  1.0753e-01|   -3.059769|
|         170|  1.0543e-01|   -3.082105|
|         180|  1.0288e-01|   -3.180444|
|         190|  1.0066e-01|   -3.275716|
|         200|  9.8972e-02|   -3.313624|
+-----------------------------------------------------------------------+
|        File Writing Summary       |              Filename             |
+-----------------------------------------------------------------------+
|SU2 binary restart                 |restart_flow_databladeVALIDATION_Blade_23.dat|
|                                   |                     (13252.4 MB/s)|
|Paraview                           |volume_flow_databladeVALIDATION_Blade_23.vtu|
|                                   |                     (856.416 MB/s)|
|Paraview surface                   |surface_flowdatabladeVALIDATION_Blade_23.vtu|
|                                   |                     (64.1459 MB/s)|
|SU2 ASCII restart                  |restart_flow_databladeVALIDATION_Blade_23.csv|
|                                   |                     (21.0535 MB/s)|
|CSV file                           |surface_flowdatabladeVALIDATION_Blade_23.csv|
|                                   |                     (19.0673 MB/s)|
+-----------------------------------------------------------------------+
+--------------------------------------+
|  Inner_Iter|   Time(sec)|    rms[Rho]|
+--------------------------------------+
|         210|  1.0861e-01|   -3.347006|
|         220|  1.0644e-01|   -3.335384|
|         230|  1.0467e-01|   -3.228374|
|         240|  1.0341e-01|   -3.193831|
|         250|  1.0191e-01|   -3.334859|
+-----------------------------------------------------------------------+
|        File Writing Summary       |              Filename             |
+-----------------------------------------------------------------------+
|SU2 binary restart                 |restart_flow_databladeVALIDATION_Blade_23.dat|
|                                   |                     (13396.9 MB/s)|
|Paraview                           |volume_flow_databladeVALIDATION_Blade_23.vtu|
|                                   |                     (919.502 MB/s)|
|Paraview surface                   |surface_flowdatabladeVALIDATION_Blade_23.vtu|
|                                   |                     (62.1052 MB/s)|
|SU2 ASCII restart                  |restart_flow_databladeVALIDATION_Blade_23.csv|
|                                   |                     (21.6245 MB/s)|
|CSV file                           |surface_flowdatabladeVALIDATION_Blade_23.csv|
|                                   |                     (20.1128 MB/s)|
+-----------------------------------------------------------------------+
+--------------------------------------+
|  Inner_Iter|   Time(sec)|    rms[Rho]|
+--------------------------------------+
|         260|  1.0900e-01|   -3.425551|
|         270|  1.0762e-01|   -3.379941|
|         280|  1.0614e-01|   -3.449801|
|         290|  1.0502e-01|   -3.478193|
|         300|  1.0392e-01|   -3.595737|
+-----------------------------------------------------------------------+
|        File Writing Summary       |              Filename             |
+-----------------------------------------------------------------------+
|SU2 binary restart                 |restart_flow_databladeVALIDATION_Blade_23.dat|
|                                   |                     (12495.9 MB/s)|
|Paraview                           |volume_flow_databladeVALIDATION_Blade_23.vtu|
|                                   |                     (953.614 MB/s)|
|Paraview surface                   |surface_flowdatabladeVALIDATION_Blade_23.vtu|
|                                   |                     (94.8821 MB/s)|
|SU2 ASCII restart                  |restart_flow_databladeVALIDATION_Blade_23.csv|
|                                   |                     (21.5387 MB/s)|
|CSV file                           |surface_flowdatabladeVALIDATION_Blade_23.csv|
|                                   |                     (19.4345 MB/s)|
+-----------------------------------------------------------------------+
+--------------------------------------+
|  Inner_Iter|   Time(sec)|    rms[Rho]|
+--------------------------------------+
|         310|  1.0996e-01|   -3.656231|
|         320|  1.0882e-01|   -3.716348|
|         330|  1.0783e-01|   -3.675592|
|         340|  1.0662e-01|   -3.711334|
|         350|  1.0545e-01|   -3.660963|
+-----------------------------------------------------------------------+
|        File Writing Summary       |              Filename             |
+-----------------------------------------------------------------------+
|SU2 binary restart                 |restart_flow_databladeVALIDATION_Blade_23.dat|
|                                   |                     (12906.7 MB/s)|
|Paraview                           |volume_flow_databladeVALIDATION_Blade_23.vtu|
|                                   |                     (927.771 MB/s)|
|Paraview surface                   |surface_flowdatabladeVALIDATION_Blade_23.vtu|
|                                   |                     (91.5146 MB/s)|
|SU2 ASCII restart                  |restart_flow_databladeVALIDATION_Blade_23.csv|
|                                   |                     (21.2557 MB/s)|
|CSV file                           |surface_flowdatabladeVALIDATION_Blade_23.csv|
|                                   |                     (20.0763 MB/s)|
+-----------------------------------------------------------------------+
+--------------------------------------+
|  Inner_Iter|   Time(sec)|    rms[Rho]|
+--------------------------------------+
|         360|  1.1094e-01|   -3.621098|
|         370|  1.0954e-01|   -3.677073|
|         380|  1.0841e-01|   -3.713590|
|         390|  1.0732e-01|   -3.695610|
|         400|  1.0646e-01|   -3.720955|
+-----------------------------------------------------------------------+
|        File Writing Summary       |              Filename             |
+-----------------------------------------------------------------------+
|SU2 binary restart                 |restart_flow_databladeVALIDATION_Blade_23.dat|
|                                   |                     (11912.8 MB/s)|
|Paraview                           |volume_flow_databladeVALIDATION_Blade_23.vtu|
|                                   |                     (824.618 MB/s)|
|Paraview surface                   |surface_flowdatabladeVALIDATION_Blade_23.vtu|
|                                   |                     (70.9369 MB/s)|
|SU2 ASCII restart                  |restart_flow_databladeVALIDATION_Blade_23.csv|
|                                   |                     (21.3931 MB/s)|
|CSV file                           |surface_flowdatabladeVALIDATION_Blade_23.csv|
|                                   |                     (18.6146 MB/s)|
+-----------------------------------------------------------------------+
+--------------------------------------+
|  Inner_Iter|   Time(sec)|    rms[Rho]|
+--------------------------------------+
|         410|  1.1100e-01|   -3.756513|
|         420|  1.0991e-01|   -3.814587|
|         430|  1.0905e-01|   -3.791391|
|         440|  1.0815e-01|   -3.835446|
|         450|  1.0713e-01|   -3.877603|
+-----------------------------------------------------------------------+
|        File Writing Summary       |              Filename             |
+-----------------------------------------------------------------------+
|SU2 binary restart                 |restart_flow_databladeVALIDATION_Blade_23.dat|
|                                   |                     (12556.8 MB/s)|
|Paraview                           |volume_flow_databladeVALIDATION_Blade_23.vtu|
|                                   |                     (887.746 MB/s)|
|Paraview surface                   |surface_flowdatabladeVALIDATION_Blade_23.vtu|
|                                   |                     (99.2205 MB/s)|
|SU2 ASCII restart                  |restart_flow_databladeVALIDATION_Blade_23.csv|
|                                   |                      (21.065 MB/s)|
|CSV file                           |surface_flowdatabladeVALIDATION_Blade_23.csv|
|                                   |                     (20.0112 MB/s)|
+-----------------------------------------------------------------------+
+--------------------------------------+
|  Inner_Iter|   Time(sec)|    rms[Rho]|
+--------------------------------------+
|         460|  1.1138e-01|   -3.923280|
|         470|  1.1048e-01|   -3.929853|
|         480|  1.0955e-01|   -3.969979|
|         490|  1.0930e-01|   -3.940075|
|         500|  1.0920e-01|   -3.924256|
+-----------------------------------------------------------------------+
|        File Writing Summary       |              Filename             |
+-----------------------------------------------------------------------+
|SU2 binary restart                 |restart_flow_databladeVALIDATION_Blade_23.dat|
|                                   |                     (12534.1 MB/s)|
|Paraview                           |volume_flow_databladeVALIDATION_Blade_23.vtu|
|                                   |                     (494.514 MB/s)|
|Paraview surface                   |surface_flowdatabladeVALIDATION_Blade_23.vtu|
|                                   |                     (58.4805 MB/s)|
|SU2 ASCII restart                  |restart_flow_databladeVALIDATION_Blade_23.csv|
|                                   |                     (20.6347 MB/s)|
|CSV file                           |surface_flowdatabladeVALIDATION_Blade_23.csv|
|                                   |                     (21.3776 MB/s)|
+-----------------------------------------------------------------------+
+--------------------------------------+
|  Inner_Iter|   Time(sec)|    rms[Rho]|
+--------------------------------------+
|         510|  1.1322e-01|   -3.969903|
|         520|  1.1258e-01|   -3.938298|
|         530|  1.1173e-01|   -3.986749|
|         540|  1.1080e-01|   -3.994969|
|         550|  1.1004e-01|   -3.981217|
+-----------------------------------------------------------------------+
|        File Writing Summary       |              Filename             |
+-----------------------------------------------------------------------+
|SU2 binary restart                 |restart_flow_databladeVALIDATION_Blade_23.dat|
|                                   |                     (12622.2 MB/s)|
|Paraview                           |volume_flow_databladeVALIDATION_Blade_23.vtu|
|                                   |                     (907.899 MB/s)|
|Paraview surface                   |surface_flowdatabladeVALIDATION_Blade_23.vtu|
|                                   |                     (103.222 MB/s)|
|SU2 ASCII restart                  |restart_flow_databladeVALIDATION_Blade_23.csv|
|                                   |                     (21.0092 MB/s)|
|CSV file                           |surface_flowdatabladeVALIDATION_Blade_23.csv|
|                                   |                     (18.3165 MB/s)|
+-----------------------------------------------------------------------+
+--------------------------------------+
|  Inner_Iter|   Time(sec)|    rms[Rho]|
+--------------------------------------+
|         560|  1.1377e-01|   -3.972405|
|         570|  1.1299e-01|   -3.991415|
|         580|  1.1219e-01|   -3.989651|
|         590|  1.1155e-01|   -3.969504|
|         600|  1.1101e-01|   -3.992564|
+-----------------------------------------------------------------------+
|        File Writing Summary       |              Filename             |
+-----------------------------------------------------------------------+
|SU2 binary restart                 |restart_flow_databladeVALIDATION_Blade_23.dat|
|                                   |                     (9131.82 MB/s)|
|Paraview                           |volume_flow_databladeVALIDATION_Blade_23.vtu|
|                                   |                     (736.365 MB/s)|
|Paraview surface                   |surface_flowdatabladeVALIDATION_Blade_23.vtu|
|                                   |                      (84.651 MB/s)|
|SU2 ASCII restart                  |restart_flow_databladeVALIDATION_Blade_23.csv|
|                                   |                     (20.8325 MB/s)|
|CSV file                           |surface_flowdatabladeVALIDATION_Blade_23.csv|
|                                   |                      (18.251 MB/s)|
+-----------------------------------------------------------------------+
+--------------------------------------+
|  Inner_Iter|   Time(sec)|    rms[Rho]|
+--------------------------------------+
|         610|  1.1424e-01|   -4.024135|
|         620|  1.1348e-01|   -4.033863|
|         630|  1.1293e-01|   -4.014028|
|         640|  1.1227e-01|   -4.036082|
|         650|  1.1160e-01|   -4.054357|
+-----------------------------------------------------------------------+
|        File Writing Summary       |              Filename             |
+-----------------------------------------------------------------------+
|SU2 binary restart                 |restart_flow_databladeVALIDATION_Blade_23.dat|
|                                   |                     (1041.28 MB/s)|
|Paraview                           |volume_flow_databladeVALIDATION_Blade_23.vtu|
|                                   |                     (950.353 MB/s)|
|Paraview surface                   |surface_flowdatabladeVALIDATION_Blade_23.vtu|
|                                   |                       (99.68 MB/s)|
|SU2 ASCII restart                  |restart_flow_databladeVALIDATION_Blade_23.csv|
|                                   |                     (21.4913 MB/s)|
|CSV file                           |surface_flowdatabladeVALIDATION_Blade_23.csv|
|                                   |                     (19.9484 MB/s)|
+-----------------------------------------------------------------------+
+--------------------------------------+
|  Inner_Iter|   Time(sec)|    rms[Rho]|
+--------------------------------------+
|         660|  1.1445e-01|   -4.071085|
|         670|  1.1381e-01|   -4.068130|
|         680|  1.1317e-01|   -4.131487|
|         690|  1.1254e-01|   -4.118726|
|         700|  1.1210e-01|   -4.094968|
+-----------------------------------------------------------------------+
|        File Writing Summary       |              Filename             |
+-----------------------------------------------------------------------+
|SU2 binary restart                 |restart_flow_databladeVALIDATION_Blade_23.dat|
|                                   |                     (12478.3 MB/s)|
|Paraview                           |volume_flow_databladeVALIDATION_Blade_23.vtu|
|                                   |                     (999.413 MB/s)|
|Paraview surface                   |surface_flowdatabladeVALIDATION_Blade_23.vtu|
|                                   |                     (114.803 MB/s)|
|SU2 ASCII restart                  |restart_flow_databladeVALIDATION_Blade_23.csv|
|                                   |                     (20.3923 MB/s)|
|CSV file                           |surface_flowdatabladeVALIDATION_Blade_23.csv|
|                                   |                     (19.9952 MB/s)|
+-----------------------------------------------------------------------+
+--------------------------------------+
|  Inner_Iter|   Time(sec)|    rms[Rho]|
+--------------------------------------+
|         710|  1.1493e-01|   -4.168366|
|         720|  1.1420e-01|   -4.181953|
|         730|  1.1369e-01|   -4.163634|
|         740|  1.1332e-01|   -4.162929|
|         750|  1.1288e-01|   -4.225922|
+-----------------------------------------------------------------------+
|        File Writing Summary       |              Filename             |
+-----------------------------------------------------------------------+
|SU2 binary restart                 |restart_flow_databladeVALIDATION_Blade_23.dat|
|                                   |                     (1824.36 MB/s)|
|Paraview                           |volume_flow_databladeVALIDATION_Blade_23.vtu|
|                                   |                     (237.429 MB/s)|
|Paraview surface                   |surface_flowdatabladeVALIDATION_Blade_23.vtu|
|                                   |                     (88.1388 MB/s)|
|SU2 ASCII restart                  |restart_flow_databladeVALIDATION_Blade_23.csv|
|                                   |                     (20.6075 MB/s)|
|CSV file                           |surface_flowdatabladeVALIDATION_Blade_23.csv|
|                                   |                     (18.2873 MB/s)|
+-----------------------------------------------------------------------+
+--------------------------------------+
|  Inner_Iter|   Time(sec)|    rms[Rho]|
+--------------------------------------+
|         760|  1.1573e-01|   -4.237029|
|         770|  1.1533e-01|   -4.249895|
|         780|  1.1487e-01|   -4.312699|
|         790|  1.1535e-01|   -4.342088|
|         800|  1.1506e-01|   -4.328921|
+-----------------------------------------------------------------------+
|        File Writing Summary       |              Filename             |
+-----------------------------------------------------------------------+
|SU2 binary restart                 |restart_flow_databladeVALIDATION_Blade_23.dat|
|                                   |                     (12132.5 MB/s)|
|Paraview                           |volume_flow_databladeVALIDATION_Blade_23.vtu|
|                                   |                     (857.434 MB/s)|
|Paraview surface                   |surface_flowdatabladeVALIDATION_Blade_23.vtu|
|                                   |                     (32.3792 MB/s)|
|SU2 ASCII restart                  |restart_flow_databladeVALIDATION_Blade_23.csv|
|                                   |                     (18.4899 MB/s)|
|CSV file                           |surface_flowdatabladeVALIDATION_Blade_23.csv|
|                                   |                     (19.2721 MB/s)|
+-----------------------------------------------------------------------+
+--------------------------------------+
|  Inner_Iter|   Time(sec)|    rms[Rho]|
+--------------------------------------+
|         810|  1.1787e-01|   -4.315240|
|         820|  1.1719e-01|   -4.340473|
|         830|  1.1730e-01|   -4.340903|
|         840|  1.1695e-01|   -4.339232|
|         850|  1.1660e-01|   -4.360651|
+-----------------------------------------------------------------------+
|        File Writing Summary       |              Filename             |
+-----------------------------------------------------------------------+
|SU2 binary restart                 |restart_flow_databladeVALIDATION_Blade_23.dat|
|                                   |                     (11448.5 MB/s)|
|Paraview                           |volume_flow_databladeVALIDATION_Blade_23.vtu|
|                                   |                     (797.518 MB/s)|
|Paraview surface                   |surface_flowdatabladeVALIDATION_Blade_23.vtu|
|                                   |                     (41.3172 MB/s)|
|SU2 ASCII restart                  |restart_flow_databladeVALIDATION_Blade_23.csv|
|                                   |                     (18.5031 MB/s)|
|CSV file                           |surface_flowdatabladeVALIDATION_Blade_23.csv|
|                                   |                     (19.0176 MB/s)|
+-----------------------------------------------------------------------+
+--------------------------------------+
|  Inner_Iter|   Time(sec)|    rms[Rho]|
+--------------------------------------+
|         860|  1.1930e-01|   -4.389142|
|         870|  1.1967e-01|   -4.363328|
|         880|  1.1915e-01|   -4.375888|
|         890|  1.1849e-01|   -4.400158|
|         900|  1.1810e-01|   -4.401002|
+-----------------------------------------------------------------------+
|        File Writing Summary       |              Filename             |
+-----------------------------------------------------------------------+
|SU2 binary restart                 |restart_flow_databladeVALIDATION_Blade_23.dat|
|                                   |                     (169.452 MB/s)|
|Paraview                           |volume_flow_databladeVALIDATION_Blade_23.vtu|
|                                   |                     (121.842 MB/s)|
|Paraview surface                   |surface_flowdatabladeVALIDATION_Blade_23.vtu|
|                                   |                     (33.9056 MB/s)|
|SU2 ASCII restart                  |restart_flow_databladeVALIDATION_Blade_23.csv|
|                                   |                     (20.4962 MB/s)|
|CSV file                           |surface_flowdatabladeVALIDATION_Blade_23.csv|
|                                   |                     (19.8136 MB/s)|
+-----------------------------------------------------------------------+
+--------------------------------------+
|  Inner_Iter|   Time(sec)|    rms[Rho]|
+--------------------------------------+
|         910|  1.2142e-01|   -4.391725|
|         920|  1.2136e-01|   -4.434590|
|         930|  1.2091e-01|   -4.469124|
|         940|  1.2128e-01|   -4.473303|
|         950|  1.2094e-01|   -4.471236|
+-----------------------------------------------------------------------+
|        File Writing Summary       |              Filename             |
+-----------------------------------------------------------------------+
|SU2 binary restart                 |restart_flow_databladeVALIDATION_Blade_23.dat|
|                                   |                     (11589.6 MB/s)|
|Paraview                           |volume_flow_databladeVALIDATION_Blade_23.vtu|
|                                   |                     (516.568 MB/s)|
|Paraview surface                   |surface_flowdatabladeVALIDATION_Blade_23.vtu|
|                                   |                     (60.3968 MB/s)|
|SU2 ASCII restart                  |restart_flow_databladeVALIDATION_Blade_23.csv|
|                                   |                     (18.8789 MB/s)|
|CSV file                           |surface_flowdatabladeVALIDATION_Blade_23.csv|
|                                   |                     (19.1856 MB/s)|
+-----------------------------------------------------------------------+
+--------------------------------------+
|  Inner_Iter|   Time(sec)|    rms[Rho]|
+--------------------------------------+
|         960|  1.2340e-01|   -4.506120|
|         970|  1.2295e-01|   -4.535779|
|         980|  1.2342e-01|   -4.539038|
|         990|  1.2296e-01|   -4.556494|
|        1000|  1.2253e-01|   -4.586343|
+-----------------------------------------------------------------------+
|        File Writing Summary       |              Filename             |
+-----------------------------------------------------------------------+
|SU2 binary restart                 |restart_flow_databladeVALIDATION_Blade_23.dat|
|                                   |                     (12924.4 MB/s)|
|Paraview                           |volume_flow_databladeVALIDATION_Blade_23.vtu|
|                                   |                       (810.7 MB/s)|
|Paraview surface                   |surface_flowdatabladeVALIDATION_Blade_23.vtu|
|                                   |                     (40.3147 MB/s)|
|SU2 ASCII restart                  |restart_flow_databladeVALIDATION_Blade_23.csv|
|                                   |                     (18.9387 MB/s)|
|CSV file                           |surface_flowdatabladeVALIDATION_Blade_23.csv|
|                                   |                     (21.4056 MB/s)|
+-----------------------------------------------------------------------+
+--------------------------------------+
|  Inner_Iter|   Time(sec)|    rms[Rho]|
+--------------------------------------+
|        1010|  1.2452e-01|   -4.584560|
|        1020|  1.2411e-01|   -4.539760|
|        1030|  1.2419e-01|   -4.600001|
|        1040|  1.2398e-01|   -4.615969|
|        1050|  1.2378e-01|   -4.608497|
+-----------------------------------------------------------------------+
|        File Writing Summary       |              Filename             |
+-----------------------------------------------------------------------+
|SU2 binary restart                 |restart_flow_databladeVALIDATION_Blade_23.dat|
|                                   |                     (6928.74 MB/s)|
|Paraview                           |volume_flow_databladeVALIDATION_Blade_23.vtu|
|                                   |                     (22.6337 MB/s)|
|Paraview surface                   |surface_flowdatabladeVALIDATION_Blade_23.vtu|
|                                   |                     (21.5565 MB/s)|
|SU2 ASCII restart                  |restart_flow_databladeVALIDATION_Blade_23.csv|
|                                   |                     (20.3664 MB/s)|
|CSV file                           |surface_flowdatabladeVALIDATION_Blade_23.csv|
|                                   |                     (14.0449 MB/s)|
+-----------------------------------------------------------------------+
+--------------------------------------+
|  Inner_Iter|   Time(sec)|    rms[Rho]|
+--------------------------------------+
|        1060|  1.2680e-01|   -4.599388|
|        1070|  1.2626e-01|   -4.626668|
|        1080|  1.2569e-01|   -4.632449|
|        1090|  1.2582e-01|   -4.612580|
|        1100|  1.2529e-01|   -4.630419|
+-----------------------------------------------------------------------+
|        File Writing Summary       |              Filename             |
+-----------------------------------------------------------------------+
|SU2 binary restart                 |restart_flow_databladeVALIDATION_Blade_23.dat|
|                                   |                     (11750.7 MB/s)|
|Paraview                           |volume_flow_databladeVALIDATION_Blade_23.vtu|
|                                   |                     (987.571 MB/s)|
|Paraview surface                   |surface_flowdatabladeVALIDATION_Blade_23.vtu|
|                                   |                     (97.5267 MB/s)|
|SU2 ASCII restart                  |restart_flow_databladeVALIDATION_Blade_23.csv|
|                                   |                     (19.0988 MB/s)|
|CSV file                           |surface_flowdatabladeVALIDATION_Blade_23.csv|
|                                   |                     (17.9979 MB/s)|
+-----------------------------------------------------------------------+
+--------------------------------------+
|  Inner_Iter|   Time(sec)|    rms[Rho]|
+--------------------------------------+
|        1110|  1.2707e-01|   -4.622460|
|        1120|  1.2666e-01|   -4.597982|
|        1130|  1.2643e-01|   -4.592315|
|        1140|  1.2648e-01|   -4.601804|
|        1150|  1.2648e-01|   -4.586004|
+-----------------------------------------------------------------------+
|        File Writing Summary       |              Filename             |
+-----------------------------------------------------------------------+
|SU2 binary restart                 |restart_flow_databladeVALIDATION_Blade_23.dat|
|                                   |                     (2788.25 MB/s)|
|Paraview                           |volume_flow_databladeVALIDATION_Blade_23.vtu|
|                                   |                     (151.995 MB/s)|
|Paraview surface                   |surface_flowdatabladeVALIDATION_Blade_23.vtu|
|                                   |                     (12.3638 MB/s)|
|SU2 ASCII restart                  |restart_flow_databladeVALIDATION_Blade_23.csv|
|                                   |                     (17.0244 MB/s)|
|CSV file                           |surface_flowdatabladeVALIDATION_Blade_23.csv|
|                                   |                     (18.2052 MB/s)|
+-----------------------------------------------------------------------+
+--------------------------------------+
|  Inner_Iter|   Time(sec)|    rms[Rho]|
+--------------------------------------+
|        1160|  1.2867e-01|   -4.616665|
|        1170|  1.2892e-01|   -4.621892|
|        1180|  1.2835e-01|   -4.655747|
|        1190|  1.2799e-01|   -4.670881|
|        1200|  1.2797e-01|   -4.712732|
+-----------------------------------------------------------------------+
|        File Writing Summary       |              Filename             |
+-----------------------------------------------------------------------+
|SU2 binary restart                 |restart_flow_databladeVALIDATION_Blade_23.dat|
|                                   |                     (13377.8 MB/s)|
|Paraview                           |volume_flow_databladeVALIDATION_Blade_23.vtu|
|                                   |                      (774.19 MB/s)|
|Paraview surface                   |surface_flowdatabladeVALIDATION_Blade_23.vtu|
|                                   |                      (69.791 MB/s)|
|SU2 ASCII restart                  |restart_flow_databladeVALIDATION_Blade_23.csv|
|                                   |                     (20.8475 MB/s)|
|CSV file                           |surface_flowdatabladeVALIDATION_Blade_23.csv|
|                                   |                     (19.9317 MB/s)|
+-----------------------------------------------------------------------+
+--------------------------------------+
|  Inner_Iter|   Time(sec)|    rms[Rho]|
+--------------------------------------+
|        1210|  1.2938e-01|   -4.728919|
|        1220|  1.2911e-01|   -4.720756|
|        1230|  1.2892e-01|   -4.724267|
|        1240|  1.2911e-01|   -4.773776|
|        1250|  1.2864e-01|   -4.764263|
+-----------------------------------------------------------------------+
|        File Writing Summary       |              Filename             |
+-----------------------------------------------------------------------+
|SU2 binary restart                 |restart_flow_databladeVALIDATION_Blade_23.dat|
|                                   |                     (12708.6 MB/s)|
|Paraview                           |volume_flow_databladeVALIDATION_Blade_23.vtu|
|                                   |                     (936.271 MB/s)|
|Paraview surface                   |surface_flowdatabladeVALIDATION_Blade_23.vtu|
|                                   |                     (94.7144 MB/s)|
|SU2 ASCII restart                  |restart_flow_databladeVALIDATION_Blade_23.csv|
|                                   |                     (19.2658 MB/s)|
|CSV file                           |surface_flowdatabladeVALIDATION_Blade_23.csv|
|                                   |                     (21.2149 MB/s)|
+-----------------------------------------------------------------------+
+--------------------------------------+
|  Inner_Iter|   Time(sec)|    rms[Rho]|
+--------------------------------------+
|        1260|  1.3016e-01|   -4.786326|
|        1270|  1.2962e-01|   -4.820280|
|        1280|  1.2967e-01|   -4.830582|
|        1290|  1.2925e-01|   -4.824163|
|        1300|  1.2879e-01|   -4.839994|
+-----------------------------------------------------------------------+
|        File Writing Summary       |              Filename             |
+-----------------------------------------------------------------------+
|SU2 binary restart                 |restart_flow_databladeVALIDATION_Blade_23.dat|
|                                   |                     (12039.3 MB/s)|
|Paraview                           |volume_flow_databladeVALIDATION_Blade_23.vtu|
|                                   |                     (941.816 MB/s)|
|Paraview surface                   |surface_flowdatabladeVALIDATION_Blade_23.vtu|
|                                   |                      (128.06 MB/s)|
|SU2 ASCII restart                  |restart_flow_databladeVALIDATION_Blade_23.csv|
|                                   |                     (20.7112 MB/s)|
|CSV file                           |surface_flowdatabladeVALIDATION_Blade_23.csv|
|                                   |                     (19.3935 MB/s)|
+-----------------------------------------------------------------------+
+--------------------------------------+
|  Inner_Iter|   Time(sec)|    rms[Rho]|
+--------------------------------------+
|        1310|  1.3009e-01|   -4.845794|
|        1320|  1.2959e-01|   -4.835215|
|        1330|  1.2913e-01|   -4.812671|
|        1340|  1.2863e-01|   -4.823592|
|        1350|  1.2826e-01|   -4.785772|
+-----------------------------------------------------------------------+
|        File Writing Summary       |              Filename             |
+-----------------------------------------------------------------------+
|SU2 binary restart                 |restart_flow_databladeVALIDATION_Blade_23.dat|
|                                   |                     (14396.2 MB/s)|
|Paraview                           |volume_flow_databladeVALIDATION_Blade_23.vtu|
|                                   |                     (989.356 MB/s)|
|Paraview surface                   |surface_flowdatabladeVALIDATION_Blade_23.vtu|
|                                   |                     (99.1144 MB/s)|
|SU2 ASCII restart                  |restart_flow_databladeVALIDATION_Blade_23.csv|
|                                   |                      (21.311 MB/s)|
|CSV file                           |surface_flowdatabladeVALIDATION_Blade_23.csv|
|                                   |                     (19.9779 MB/s)|
+-----------------------------------------------------------------------+
+--------------------------------------+
|  Inner_Iter|   Time(sec)|    rms[Rho]|
+--------------------------------------+
|        1360|  1.2973e-01|   -4.780679|
|        1370|  1.2931e-01|   -4.789416|
|        1380|  1.2890e-01|   -4.797810|
|        1390|  1.2846e-01|   -4.811194|
|        1400|  1.2800e-01|   -4.818347|
+-----------------------------------------------------------------------+
|        File Writing Summary       |              Filename             |
+-----------------------------------------------------------------------+
|SU2 binary restart                 |restart_flow_databladeVALIDATION_Blade_23.dat|
|                                   |                     (10526.9 MB/s)|
|Paraview                           |volume_flow_databladeVALIDATION_Blade_23.vtu|
|                                   |                     (863.073 MB/s)|
|Paraview surface                   |surface_flowdatabladeVALIDATION_Blade_23.vtu|
|                                   |                     (93.5965 MB/s)|
|SU2 ASCII restart                  |restart_flow_databladeVALIDATION_Blade_23.csv|
|                                   |                     (20.8035 MB/s)|
|CSV file                           |surface_flowdatabladeVALIDATION_Blade_23.csv|
|                                   |                      (21.002 MB/s)|
+-----------------------------------------------------------------------+
+--------------------------------------+
|  Inner_Iter|   Time(sec)|    rms[Rho]|
+--------------------------------------+
|        1410|  1.2928e-01|   -4.823646|
|        1420|  1.2887e-01|   -4.842115|
|        1430|  1.2844e-01|   -4.861669|
|        1440|  1.2811e-01|   -4.862070|
|        1450|  1.2769e-01|   -4.896518|
+-----------------------------------------------------------------------+
|        File Writing Summary       |              Filename             |
+-----------------------------------------------------------------------+
|SU2 binary restart                 |restart_flow_databladeVALIDATION_Blade_23.dat|
|                                   |                     (8284.39 MB/s)|
|Paraview                           |volume_flow_databladeVALIDATION_Blade_23.vtu|
|                                   |                     (761.462 MB/s)|
|Paraview surface                   |surface_flowdatabladeVALIDATION_Blade_23.vtu|
|                                   |                     (96.7984 MB/s)|
|SU2 ASCII restart                  |restart_flow_databladeVALIDATION_Blade_23.csv|
|                                   |                     (20.7363 MB/s)|
|CSV file                           |surface_flowdatabladeVALIDATION_Blade_23.csv|
|                                   |                     (20.3558 MB/s)|
+-----------------------------------------------------------------------+
+--------------------------------------+
|  Inner_Iter|   Time(sec)|    rms[Rho]|
+--------------------------------------+
|        1460|  1.2884e-01|   -4.912903|
|        1470|  1.2841e-01|   -4.915665|
|        1480|  1.2801e-01|   -4.918223|
|        1490|  1.2771e-01|   -4.924167|
|        1500|  1.2738e-01|   -4.922582|
+-----------------------------------------------------------------------+
|        File Writing Summary       |              Filename             |
+-----------------------------------------------------------------------+
|SU2 binary restart                 |restart_flow_databladeVALIDATION_Blade_23.dat|
|                                   |                     (9197.52 MB/s)|
|Paraview                           |volume_flow_databladeVALIDATION_Blade_23.vtu|
|                                   |                     (973.721 MB/s)|
|Paraview surface                   |surface_flowdatabladeVALIDATION_Blade_23.vtu|
|                                   |                     (98.8098 MB/s)|
|SU2 ASCII restart                  |restart_flow_databladeVALIDATION_Blade_23.csv|
|                                   |                     (21.7782 MB/s)|
|CSV file                           |surface_flowdatabladeVALIDATION_Blade_23.csv|
|                                   |                     (21.3473 MB/s)|
+-----------------------------------------------------------------------+
+--------------------------------------+
|  Inner_Iter|   Time(sec)|    rms[Rho]|
+--------------------------------------+
|        1510|  1.2861e-01|   -4.931002|
|        1520|  1.2831e-01|   -4.946716|
|        1530|  1.2800e-01|   -4.936198|
|        1540|  1.2759e-01|   -4.964482|
|        1550|  1.2724e-01|   -4.929539|
+-----------------------------------------------------------------------+
|        File Writing Summary       |              Filename             |
+-----------------------------------------------------------------------+
|SU2 binary restart                 |restart_flow_databladeVALIDATION_Blade_23.dat|
|                                   |                       (13322 MB/s)|
|Paraview                           |volume_flow_databladeVALIDATION_Blade_23.vtu|
|                                   |                     (1047.39 MB/s)|
|Paraview surface                   |surface_flowdatabladeVALIDATION_Blade_23.vtu|
|                                   |                     (85.4309 MB/s)|
|SU2 ASCII restart                  |restart_flow_databladeVALIDATION_Blade_23.csv|
|                                   |                      (20.984 MB/s)|
|CSV file                           |surface_flowdatabladeVALIDATION_Blade_23.csv|
|                                   |                      (21.395 MB/s)|
+-----------------------------------------------------------------------+
+--------------------------------------+
|  Inner_Iter|   Time(sec)|    rms[Rho]|
+--------------------------------------+
|        1560|  1.2839e-01|   -4.940328|
|        1570|  1.2797e-01|   -4.977783|
|        1580|  1.2772e-01|   -4.955275|
|        1590|  1.2727e-01|   -5.003441|
|        1600|  1.2688e-01|   -5.004234|
+-----------------------------------------------------------------------+
|        File Writing Summary       |              Filename             |
+-----------------------------------------------------------------------+
|SU2 binary restart                 |restart_flow_databladeVALIDATION_Blade_23.dat|
|                                   |                     (12147.3 MB/s)|
|Paraview                           |volume_flow_databladeVALIDATION_Blade_23.vtu|
|                                   |                     (971.646 MB/s)|
|Paraview surface                   |surface_flowdatabladeVALIDATION_Blade_23.vtu|
|                                   |                      (99.033 MB/s)|
|SU2 ASCII restart                  |restart_flow_databladeVALIDATION_Blade_23.csv|
|                                   |                     (20.5745 MB/s)|
|CSV file                           |surface_flowdatabladeVALIDATION_Blade_23.csv|
|                                   |                     (21.7572 MB/s)|
+-----------------------------------------------------------------------+
+--------------------------------------+
|  Inner_Iter|   Time(sec)|    rms[Rho]|
+--------------------------------------+
|        1610|  1.2801e-01|   -4.998850|
|        1620|  1.2776e-01|   -5.006164|
|        1630|  1.2741e-01|   -5.041342|
|        1640|  1.2703e-01|   -5.043163|
|        1650|  1.2668e-01|   -5.020867|
+-----------------------------------------------------------------------+
|        File Writing Summary       |              Filename             |
+-----------------------------------------------------------------------+
|SU2 binary restart                 |restart_flow_databladeVALIDATION_Blade_23.dat|
|                                   |                     (12109.6 MB/s)|
|Paraview                           |volume_flow_databladeVALIDATION_Blade_23.vtu|
|                                   |                     (828.248 MB/s)|
|Paraview surface                   |surface_flowdatabladeVALIDATION_Blade_23.vtu|
|                                   |                     (95.1217 MB/s)|
|SU2 ASCII restart                  |restart_flow_databladeVALIDATION_Blade_23.csv|
|                                   |                     (20.7872 MB/s)|
|CSV file                           |surface_flowdatabladeVALIDATION_Blade_23.csv|
|                                   |                      (21.712 MB/s)|
+-----------------------------------------------------------------------+
+--------------------------------------+
|  Inner_Iter|   Time(sec)|    rms[Rho]|
+--------------------------------------+
|        1660|  1.2776e-01|   -5.032544|
|        1670|  1.2753e-01|   -5.029033|
|        1680|  1.2733e-01|   -5.047124|
|        1690|  1.2712e-01|   -5.078404|
|        1700|  1.2691e-01|   -5.097846|
+-----------------------------------------------------------------------+
|        File Writing Summary       |              Filename             |
+-----------------------------------------------------------------------+
|SU2 binary restart                 |restart_flow_databladeVALIDATION_Blade_23.dat|
|                                   |                     (3235.29 MB/s)|
|Paraview                           |volume_flow_databladeVALIDATION_Blade_23.vtu|
|                                   |                      (586.32 MB/s)|
|Paraview surface                   |surface_flowdatabladeVALIDATION_Blade_23.vtu|
|                                   |                     (81.1191 MB/s)|
|SU2 ASCII restart                  |restart_flow_databladeVALIDATION_Blade_23.csv|
|                                   |                     (19.7169 MB/s)|
|CSV file                           |surface_flowdatabladeVALIDATION_Blade_23.csv|
|                                   |                     (20.0912 MB/s)|
+-----------------------------------------------------------------------+
+--------------------------------------+
|  Inner_Iter|   Time(sec)|    rms[Rho]|
+--------------------------------------+
|        1710|  1.2812e-01|   -5.076002|
|        1720|  1.2780e-01|   -5.124305|
|        1730|  1.2748e-01|   -5.136286|
|        1740|  1.2718e-01|   -5.106305|
|        1750|  1.2692e-01|   -5.084450|
+-----------------------------------------------------------------------+
|        File Writing Summary       |              Filename             |
+-----------------------------------------------------------------------+
|SU2 binary restart                 |restart_flow_databladeVALIDATION_Blade_23.dat|
|                                   |                     (10486.8 MB/s)|
|Paraview                           |volume_flow_databladeVALIDATION_Blade_23.vtu|
|                                   |                     (507.576 MB/s)|
|Paraview surface                   |surface_flowdatabladeVALIDATION_Blade_23.vtu|
|                                   |                     (55.0613 MB/s)|
|SU2 ASCII restart                  |restart_flow_databladeVALIDATION_Blade_23.csv|
|                                   |                     (20.5813 MB/s)|
|CSV file                           |surface_flowdatabladeVALIDATION_Blade_23.csv|
|                                   |                     (21.2879 MB/s)|
+-----------------------------------------------------------------------+
+--------------------------------------+
|  Inner_Iter|   Time(sec)|    rms[Rho]|
+--------------------------------------+
|        1760|  1.2801e-01|   -5.131062|
|        1770|  1.2773e-01|   -5.166230|
|        1780|  1.2746e-01|   -5.176536|
|        1790|  1.2720e-01|   -5.162440|
|        1800|  1.2684e-01|   -5.215135|
+-----------------------------------------------------------------------+
|        File Writing Summary       |              Filename             |
+-----------------------------------------------------------------------+
|SU2 binary restart                 |restart_flow_databladeVALIDATION_Blade_23.dat|
|                                   |                     (12052.9 MB/s)|
|Paraview                           |volume_flow_databladeVALIDATION_Blade_23.vtu|
|                                   |                     (831.885 MB/s)|
|Paraview surface                   |surface_flowdatabladeVALIDATION_Blade_23.vtu|
|                                   |                     (110.458 MB/s)|
|SU2 ASCII restart                  |restart_flow_databladeVALIDATION_Blade_23.csv|
|                                   |                     (21.5694 MB/s)|
|CSV file                           |surface_flowdatabladeVALIDATION_Blade_23.csv|
|                                   |                     (20.8103 MB/s)|
+-----------------------------------------------------------------------+
+--------------------------------------+
|  Inner_Iter|   Time(sec)|    rms[Rho]|
+--------------------------------------+
|        1810|  1.2774e-01|   -5.230678|
|        1820|  1.2741e-01|   -5.207644|
|        1830|  1.2710e-01|   -5.182055|
|        1840|  1.2678e-01|   -5.258320|
|        1850|  1.2642e-01|   -5.268864|
+-----------------------------------------------------------------------+
|        File Writing Summary       |              Filename             |
+-----------------------------------------------------------------------+
|SU2 binary restart                 |restart_flow_databladeVALIDATION_Blade_23.dat|
|                                   |                       (11730 MB/s)|
|Paraview                           |volume_flow_databladeVALIDATION_Blade_23.vtu|
|                                   |                     (981.406 MB/s)|
|Paraview surface                   |surface_flowdatabladeVALIDATION_Blade_23.vtu|
|                                   |                     (91.1444 MB/s)|
|SU2 ASCII restart                  |restart_flow_databladeVALIDATION_Blade_23.csv|
|                                   |                     (20.7996 MB/s)|
|CSV file                           |surface_flowdatabladeVALIDATION_Blade_23.csv|
|                                   |                     (19.0418 MB/s)|
+-----------------------------------------------------------------------+
+--------------------------------------+
|  Inner_Iter|   Time(sec)|    rms[Rho]|
+--------------------------------------+
|        1860|  1.2738e-01|   -5.244030|
|        1870|  1.2705e-01|   -5.274473|
|        1880|  1.2670e-01|   -5.300362|
|        1890|  1.2636e-01|   -5.300719|
|        1900|  1.2612e-01|   -5.278507|
+-----------------------------------------------------------------------+
|        File Writing Summary       |              Filename             |
+-----------------------------------------------------------------------+
|SU2 binary restart                 |restart_flow_databladeVALIDATION_Blade_23.dat|
|                                   |                     (11042.6 MB/s)|
|Paraview                           |volume_flow_databladeVALIDATION_Blade_23.vtu|
|                                   |                     (931.874 MB/s)|
|Paraview surface                   |surface_flowdatabladeVALIDATION_Blade_23.vtu|
|                                   |                     (93.7166 MB/s)|
|SU2 ASCII restart                  |restart_flow_databladeVALIDATION_Blade_23.csv|
|                                   |                     (21.3663 MB/s)|
|CSV file                           |surface_flowdatabladeVALIDATION_Blade_23.csv|
|                                   |                     (19.5884 MB/s)|
+-----------------------------------------------------------------------+
+--------------------------------------+
|  Inner_Iter|   Time(sec)|    rms[Rho]|
+--------------------------------------+
|        1910|  1.2699e-01|   -5.322084|
|        1920|  1.2668e-01|   -5.306169|
|        1930|  1.2648e-01|   -5.262122|
|        1940|  1.2617e-01|   -5.331368|
|        1950|  1.2595e-01|   -5.304607|
+-----------------------------------------------------------------------+
|        File Writing Summary       |              Filename             |
+-----------------------------------------------------------------------+
|SU2 binary restart                 |restart_flow_databladeVALIDATION_Blade_23.dat|
|                                   |                     (8606.54 MB/s)|
|Paraview                           |volume_flow_databladeVALIDATION_Blade_23.vtu|
|                                   |                     (955.504 MB/s)|
|Paraview surface                   |surface_flowdatabladeVALIDATION_Blade_23.vtu|
|                                   |                     (75.9087 MB/s)|
|SU2 ASCII restart                  |restart_flow_databladeVALIDATION_Blade_23.csv|
|                                   |                     (21.1096 MB/s)|
|CSV file                           |surface_flowdatabladeVALIDATION_Blade_23.csv|
|                                   |                     (20.4369 MB/s)|
+-----------------------------------------------------------------------+
+--------------------------------------+
|  Inner_Iter|   Time(sec)|    rms[Rho]|
+--------------------------------------+
|        1960|  1.2698e-01|   -5.340511|
|        1970|  1.2678e-01|   -5.367857|
|        1980|  1.2665e-01|   -5.362580|
|        1990|  1.2642e-01|   -5.394156|
|        2000|  1.2622e-01|   -5.349183|
+-----------------------------------------------------------------------+
|        File Writing Summary       |              Filename             |
+-----------------------------------------------------------------------+
|SU2 binary restart                 |restart_flow_databladeVALIDATION_Blade_23.dat|
|                                   |                     (11067.1 MB/s)|
|Paraview                           |volume_flow_databladeVALIDATION_Blade_23.vtu|
|                                   |                     (778.105 MB/s)|
|Paraview surface                   |surface_flowdatabladeVALIDATION_Blade_23.vtu|
|                                   |                     (67.3255 MB/s)|
|SU2 ASCII restart                  |restart_flow_databladeVALIDATION_Blade_23.csv|
|                                   |                     (20.7608 MB/s)|
|CSV file                           |surface_flowdatabladeVALIDATION_Blade_23.csv|
|                                   |                     (21.4759 MB/s)|
+-----------------------------------------------------------------------+
+--------------------------------------+
|  Inner_Iter|   Time(sec)|    rms[Rho]|
+--------------------------------------+
|        2010|  1.2709e-01|   -5.397808|
|        2020|  1.2676e-01|   -5.424900|
|        2030|  1.2656e-01|   -5.399528|
|        2040|  1.2636e-01|   -5.439774|
|        2050|  1.2607e-01|   -5.475272|
+-----------------------------------------------------------------------+
|        File Writing Summary       |              Filename             |
+-----------------------------------------------------------------------+
|SU2 binary restart                 |restart_flow_databladeVALIDATION_Blade_23.dat|
|                                   |                     (13219.5 MB/s)|
|Paraview                           |volume_flow_databladeVALIDATION_Blade_23.vtu|
|                                   |                     (1032.66 MB/s)|
|Paraview surface                   |surface_flowdatabladeVALIDATION_Blade_23.vtu|
|                                   |                     (99.5647 MB/s)|
|SU2 ASCII restart                  |restart_flow_databladeVALIDATION_Blade_23.csv|
|                                   |                     (20.7632 MB/s)|
|CSV file                           |surface_flowdatabladeVALIDATION_Blade_23.csv|
|                                   |                     (22.1728 MB/s)|
+-----------------------------------------------------------------------+
+--------------------------------------+
|  Inner_Iter|   Time(sec)|    rms[Rho]|
+--------------------------------------+
|        2060|  1.2692e-01|   -5.484102|
|        2070|  1.2668e-01|   -5.453170|
|        2080|  1.2639e-01|   -5.497526|
|        2090|  1.2614e-01|   -5.498220|
|        2100|  1.2595e-01|   -5.474143|
+-----------------------------------------------------------------------+
|        File Writing Summary       |              Filename             |
+-----------------------------------------------------------------------+
|SU2 binary restart                 |restart_flow_databladeVALIDATION_Blade_23.dat|
|                                   |                     (12631.2 MB/s)|
|Paraview                           |volume_flow_databladeVALIDATION_Blade_23.vtu|
|                                   |                     (591.531 MB/s)|
|Paraview surface                   |surface_flowdatabladeVALIDATION_Blade_23.vtu|
|                                   |                     (35.6884 MB/s)|
|SU2 ASCII restart                  |restart_flow_databladeVALIDATION_Blade_23.csv|
|                                   |                     (19.9771 MB/s)|
|CSV file                           |surface_flowdatabladeVALIDATION_Blade_23.csv|
|                                   |                     (20.2754 MB/s)|
+-----------------------------------------------------------------------+
+--------------------------------------+
|  Inner_Iter|   Time(sec)|    rms[Rho]|
+--------------------------------------+
|        2110|  1.2687e-01|   -5.491501|
|        2120|  1.2674e-01|   -5.521747|
|        2130|  1.2646e-01|   -5.559569|
|        2140|  1.2620e-01|   -5.563977|
|        2150|  1.2595e-01|   -5.554616|
+-----------------------------------------------------------------------+
|        File Writing Summary       |              Filename             |
+-----------------------------------------------------------------------+
|SU2 binary restart                 |restart_flow_databladeVALIDATION_Blade_23.dat|
|                                   |                     (12907.7 MB/s)|
|Paraview                           |volume_flow_databladeVALIDATION_Blade_23.vtu|
|                                   |                     (915.653 MB/s)|
|Paraview surface                   |surface_flowdatabladeVALIDATION_Blade_23.vtu|
|                                   |                     (81.5747 MB/s)|
|SU2 ASCII restart                  |restart_flow_databladeVALIDATION_Blade_23.csv|
|                                   |                      (21.145 MB/s)|
|CSV file                           |surface_flowdatabladeVALIDATION_Blade_23.csv|
|                                   |                     (20.8187 MB/s)|
+-----------------------------------------------------------------------+
+--------------------------------------+
|  Inner_Iter|   Time(sec)|    rms[Rho]|
+--------------------------------------+
|        2160|  1.2683e-01|   -5.549573|
|        2170|  1.2657e-01|   -5.577736|
|        2180|  1.2629e-01|   -5.586545|
|        2190|  1.2602e-01|   -5.578357|
|        2200|  1.2577e-01|   -5.572146|
+-----------------------------------------------------------------------+
|        File Writing Summary       |              Filename             |
+-----------------------------------------------------------------------+
|SU2 binary restart                 |restart_flow_databladeVALIDATION_Blade_23.dat|
|                                   |                     (11086.3 MB/s)|
|Paraview                           |volume_flow_databladeVALIDATION_Blade_23.vtu|
|                                   |                     (950.875 MB/s)|
|Paraview surface                   |surface_flowdatabladeVALIDATION_Blade_23.vtu|
|                                   |                     (89.2052 MB/s)|
|SU2 ASCII restart                  |restart_flow_databladeVALIDATION_Blade_23.csv|
|                                   |                     (21.3096 MB/s)|
|CSV file                           |surface_flowdatabladeVALIDATION_Blade_23.csv|
|                                   |                     (19.5259 MB/s)|
+-----------------------------------------------------------------------+
+--------------------------------------+
|  Inner_Iter|   Time(sec)|    rms[Rho]|
+--------------------------------------+
|        2210|  1.2660e-01|   -5.594929|
|        2220|  1.2633e-01|   -5.619109|
|        2230|  1.2609e-01|   -5.614253|
|        2240|  1.2581e-01|   -5.631098|
|        2250|  1.2559e-01|   -5.629820|
+-----------------------------------------------------------------------+
|        File Writing Summary       |              Filename             |
+-----------------------------------------------------------------------+
|SU2 binary restart                 |restart_flow_databladeVALIDATION_Blade_23.dat|
|                                   |                     (9228.86 MB/s)|
|Paraview                           |volume_flow_databladeVALIDATION_Blade_23.vtu|
|                                   |                     (1012.02 MB/s)|
|Paraview surface                   |surface_flowdatabladeVALIDATION_Blade_23.vtu|
|                                   |                     (89.0997 MB/s)|
|SU2 ASCII restart                  |restart_flow_databladeVALIDATION_Blade_23.csv|
|                                   |                     (21.1532 MB/s)|
|CSV file                           |surface_flowdatabladeVALIDATION_Blade_23.csv|
|                                   |                      (21.603 MB/s)|
+-----------------------------------------------------------------------+
+--------------------------------------+
|  Inner_Iter|   Time(sec)|    rms[Rho]|
+--------------------------------------+
|        2260|  1.2637e-01|   -5.621544|
|        2270|  1.2610e-01|   -5.644594|
|        2280|  1.2583e-01|   -5.651509|
|        2290|  1.2564e-01|   -5.642229|
|        2300|  1.2546e-01|   -5.661091|
+-----------------------------------------------------------------------+
|        File Writing Summary       |              Filename             |
+-----------------------------------------------------------------------+
|SU2 binary restart                 |restart_flow_databladeVALIDATION_Blade_23.dat|
|                                   |                     (12069.3 MB/s)|
|Paraview                           |volume_flow_databladeVALIDATION_Blade_23.vtu|
|                                   |                      (809.85 MB/s)|
|Paraview surface                   |surface_flowdatabladeVALIDATION_Blade_23.vtu|
|                                   |                     (106.784 MB/s)|
|SU2 ASCII restart                  |restart_flow_databladeVALIDATION_Blade_23.csv|
|                                   |                     (21.2414 MB/s)|
|CSV file                           |surface_flowdatabladeVALIDATION_Blade_23.csv|
|                                   |                     (21.2166 MB/s)|
+-----------------------------------------------------------------------+
+--------------------------------------+
|  Inner_Iter|   Time(sec)|    rms[Rho]|
+--------------------------------------+
|        2310|  1.2622e-01|   -5.679840|
|        2320|  1.2596e-01|   -5.684250|
|        2330|  1.2571e-01|   -5.699219|
|        2340|  1.2551e-01|   -5.685987|
|        2350|  1.2535e-01|   -5.689313|
+-----------------------------------------------------------------------+
|        File Writing Summary       |              Filename             |
+-----------------------------------------------------------------------+
|SU2 binary restart                 |restart_flow_databladeVALIDATION_Blade_23.dat|
|                                   |                     (11485.5 MB/s)|
|Paraview                           |volume_flow_databladeVALIDATION_Blade_23.vtu|
[...]
+-----------------------------------------------------------------------+
|SU2 binary restart                 |restart_flow_databladeVALIDATION_Blade_23.dat|
|                                   |                     (1472.53 MB/s)|
|Paraview                           |volume_flow_databladeVALIDATION_Blade_23.vtu|
|                                   |                     (386.144 MB/s)|
|Paraview surface                   |surface_flowdatabladeVALIDATION_Blade_23.vtu|
|                                   |                     (81.9993 MB/s)|
|SU2 ASCII restart                  |restart_flow_databladeVALIDATION_Blade_23.csv|
|                                   |                     (20.8261 MB/s)|
|CSV file                           |surface_flowdatabladeVALIDATION_Blade_23.csv|
|                                   |                      (19.503 MB/s)|
+-----------------------------------------------------------------------+
+--------------------------------------+
|  Inner_Iter|   Time(sec)|    rms[Rho]|
+--------------------------------------+
|        3560|  1.2585e-01|   -6.678712|
|        3570|  1.2569e-01|   -6.678030|
|        3580|  1.2552e-01|   -6.664178|
|        3590|  1.2537e-01|   -6.684413|
|        3600|  1.2527e-01|   -6.672207|
+-----------------------------------------------------------------------+
|        File Writing Summary       |              Filename             |
+-----------------------------------------------------------------------+
|SU2 binary restart                 |restart_flow_databladeVALIDATION_Blade_23.dat|
|                                   |                     (12237.5 MB/s)|
|Paraview                           |volume_flow_databladeVALIDATION_Blade_23.vtu|
|                                   |                     (581.773 MB/s)|
|Paraview surface                   |surface_flowdatabladeVALIDATION_Blade_23.vtu|
|                                   |                     (92.6399 MB/s)|
|SU2 ASCII restart                  |restart_flow_databladeVALIDATION_Blade_23.csv|
|                                   |                     (20.7149 MB/s)|
|CSV file                           |surface_flowdatabladeVALIDATION_Blade_23.csv|
|                                   |                     (19.3373 MB/s)|
+-----------------------------------------------------------------------+
+--------------------------------------+
|  Inner_Iter|   Time(sec)|    rms[Rho]|
+--------------------------------------+
|        3610|  1.2583e-01|   -6.683111|
|        3620|  1.2592e-01|   -6.695240|
|        3630|  1.2582e-01|   -6.697737|
|        3640|  1.2565e-01|   -6.732327|
|        3650|  1.2550e-01|   -6.726846|
+-----------------------------------------------------------------------+
|        File Writing Summary       |              Filename             |
+-----------------------------------------------------------------------+
|SU2 binary restart                 |restart_flow_databladeVALIDATION_Blade_23.dat|
|                                   |                     (11285.1 MB/s)|
|Paraview                           |volume_flow_databladeVALIDATION_Blade_23.vtu|
|                                   |                     (946.636 MB/s)|
|Paraview surface                   |surface_flowdatabladeVALIDATION_Blade_23.vtu|
|                                   |                     (97.0517 MB/s)|
|SU2 ASCII restart                  |restart_flow_databladeVALIDATION_Blade_23.csv|
|                                   |                     (20.5671 MB/s)|
|CSV file                           |surface_flowdatabladeVALIDATION_Blade_23.csv|
|                                   |                     (21.7463 MB/s)|
+-----------------------------------------------------------------------+
+--------------------------------------+
|  Inner_Iter|   Time(sec)|    rms[Rho]|
+--------------------------------------+
|        3660|  1.2599e-01|   -6.693771|
|        3670|  1.2583e-01|   -6.726210|
|        3680|  1.2571e-01|   -6.708350|
|        3690|  1.2567e-01|   -6.727570|
|        3700|  1.2562e-01|   -6.733069|
+-----------------------------------------------------------------------+
|        File Writing Summary       |              Filename             |
+-----------------------------------------------------------------------+
|SU2 binary restart                 |restart_flow_databladeVALIDATION_Blade_23.dat|
|                                   |                     (8206.96 MB/s)|
|Paraview                           |volume_flow_databladeVALIDATION_Blade_23.vtu|
|                                   |                     (491.895 MB/s)|
|Paraview surface                   |surface_flowdatabladeVALIDATION_Blade_23.vtu|
|                                   |                     (90.4299 MB/s)|
|SU2 ASCII restart                  |restart_flow_databladeVALIDATION_Blade_23.csv|
|                                   |                     (20.7242 MB/s)|
|CSV file                           |surface_flowdatabladeVALIDATION_Blade_23.csv|
|                                   |                     (19.7203 MB/s)|
+-----------------------------------------------------------------------+
+--------------------------------------+
|  Inner_Iter|   Time(sec)|    rms[Rho]|
+--------------------------------------+
|        3710|  1.2611e-01|   -6.771982|
|        3720|  1.2597e-01|   -6.756957|
|        3730|  1.2585e-01|   -6.713682|
|        3740|  1.2569e-01|   -6.782672|
|        3750|  1.2558e-01|   -6.765640|
+-----------------------------------------------------------------------+
|        File Writing Summary       |              Filename             |
+-----------------------------------------------------------------------+
|SU2 binary restart                 |restart_flow_databladeVALIDATION_Blade_23.dat|
|                                   |                     (11636.9 MB/s)|
|Paraview                           |volume_flow_databladeVALIDATION_Blade_23.vtu|
|                                   |                     (831.098 MB/s)|
|Paraview surface                   |surface_flowdatabladeVALIDATION_Blade_23.vtu|
|                                   |                      (93.361 MB/s)|
|SU2 ASCII restart                  |restart_flow_databladeVALIDATION_Blade_23.csv|
|                                   |                     (20.7523 MB/s)|
|CSV file                           |surface_flowdatabladeVALIDATION_Blade_23.csv|
|                                   |                     (22.3113 MB/s)|
+-----------------------------------------------------------------------+
+--------------------------------------+
|  Inner_Iter|   Time(sec)|    rms[Rho]|
+--------------------------------------+
|        3760|  1.2604e-01|   -6.802540|
|        3770|  1.2589e-01|   -6.819686|
|        3780|  1.2580e-01|   -6.799416|
|        3790|  1.2563e-01|   -6.836035|
|        3800|  1.2546e-01|   -6.827504|
+-----------------------------------------------------------------------+
|        File Writing Summary       |              Filename             |
+-----------------------------------------------------------------------+
|SU2 binary restart                 |restart_flow_databladeVALIDATION_Blade_23.dat|
|                                   |                     (12482.2 MB/s)|
|Paraview                           |volume_flow_databladeVALIDATION_Blade_23.vtu|
|                                   |                     (1070.64 MB/s)|
|Paraview surface                   |surface_flowdatabladeVALIDATION_Blade_23.vtu|
|                                   |                     (104.452 MB/s)|
|SU2 ASCII restart                  |restart_flow_databladeVALIDATION_Blade_23.csv|
|                                   |                     (20.1648 MB/s)|
|CSV file                           |surface_flowdatabladeVALIDATION_Blade_23.csv|
|                                   |                     (20.1416 MB/s)|
+-----------------------------------------------------------------------+
+--------------------------------------+
|  Inner_Iter|   Time(sec)|    rms[Rho]|
+--------------------------------------+
|        3810|  1.2596e-01|   -6.788301|
|        3820|  1.2581e-01|   -6.820089|
|        3830|  1.2564e-01|   -6.836507|
|        3840|  1.2547e-01|   -6.821852|
|        3850|  1.2534e-01|   -6.784334|
+-----------------------------------------------------------------------+
|        File Writing Summary       |              Filename             |
+-----------------------------------------------------------------------+
|SU2 binary restart                 |restart_flow_databladeVALIDATION_Blade_23.dat|
|                                   |                     (11881.7 MB/s)|
|Paraview                           |volume_flow_databladeVALIDATION_Blade_23.vtu|
|                                   |                     (635.642 MB/s)|
|Paraview surface                   |surface_flowdatabladeVALIDATION_Blade_23.vtu|
|                                   |                     (95.2269 MB/s)|
|SU2 ASCII restart                  |restart_flow_databladeVALIDATION_Blade_23.csv|
|                                   |                     (20.9343 MB/s)|
|CSV file                           |surface_flowdatabladeVALIDATION_Blade_23.csv|
|                                   |                     (17.7254 MB/s)|
+-----------------------------------------------------------------------+
+--------------------------------------+
|  Inner_Iter|   Time(sec)|    rms[Rho]|
+--------------------------------------+
|        3860|  1.2580e-01|   -6.853734|
|        3870|  1.2563e-01|   -6.861965|
|        3880|  1.2546e-01|   -6.859065|
|        3890|  1.2533e-01|   -6.851299|
|        3900|  1.2515e-01|   -6.882291|
+-----------------------------------------------------------------------+
|        File Writing Summary       |              Filename             |
+-----------------------------------------------------------------------+
|SU2 binary restart                 |restart_flow_databladeVALIDATION_Blade_23.dat|
|                                   |                     (10603.7 MB/s)|
|Paraview                           |volume_flow_databladeVALIDATION_Blade_23.vtu|
|                                   |                     (851.643 MB/s)|
|Paraview surface                   |surface_flowdatabladeVALIDATION_Blade_23.vtu|
|                                   |                     (65.5963 MB/s)|
|SU2 ASCII restart                  |restart_flow_databladeVALIDATION_Blade_23.csv|
|                                   |                     (20.8711 MB/s)|
|CSV file                           |surface_flowdatabladeVALIDATION_Blade_23.csv|
|                                   |                     (21.9639 MB/s)|
+-----------------------------------------------------------------------+
+--------------------------------------+
|  Inner_Iter|   Time(sec)|    rms[Rho]|
+--------------------------------------+
|        3910|  1.2559e-01|   -6.882105|
|        3920|  1.2544e-01|   -6.863606|
|        3930|  1.2529e-01|   -6.890533|
|        3940|  1.2513e-01|   -6.900214|
|        3950|  1.2501e-01|   -6.885179|
+-----------------------------------------------------------------------+
|        File Writing Summary       |              Filename             |
+-----------------------------------------------------------------------+
|SU2 binary restart                 |restart_flow_databladeVALIDATION_Blade_23.dat|
|                                   |                     (12874.4 MB/s)|
|Paraview                           |volume_flow_databladeVALIDATION_Blade_23.vtu|
|                                   |                     (942.134 MB/s)|
|Paraview surface                   |surface_flowdatabladeVALIDATION_Blade_23.vtu|
|                                   |                     (97.0126 MB/s)|
|SU2 ASCII restart                  |restart_flow_databladeVALIDATION_Blade_23.csv|
|                                   |                     (21.3439 MB/s)|
|CSV file                           |surface_flowdatabladeVALIDATION_Blade_23.csv|
|                                   |                     (21.5852 MB/s)|
+-----------------------------------------------------------------------+
+--------------------------------------+
|  Inner_Iter|   Time(sec)|    rms[Rho]|
+--------------------------------------+
|        3960|  1.2544e-01|   -6.899160|
|        3970|  1.2528e-01|   -6.925933|
|        3980|  1.2514e-01|   -6.927317|
|        3990|  1.2500e-01|   -6.907831|
|        4000|  1.2486e-01|   -6.932562|
+-----------------------------------------------------------------------+
|        File Writing Summary       |              Filename             |
+-----------------------------------------------------------------------+
|SU2 binary restart                 |restart_flow_databladeVALIDATION_Blade_23.dat|
|                                   |                     (12013.1 MB/s)|
|Paraview                           |volume_flow_databladeVALIDATION_Blade_23.vtu|
|                                   |                     (950.867 MB/s)|
|Paraview surface                   |surface_flowdatabladeVALIDATION_Blade_23.vtu|
|                                   |                     (96.0273 MB/s)|
|SU2 ASCII restart                  |restart_flow_databladeVALIDATION_Blade_23.csv|
|                                   |                     (21.0299 MB/s)|
|CSV file                           |surface_flowdatabladeVALIDATION_Blade_23.csv|
|                                   |                     (20.1109 MB/s)|
+-----------------------------------------------------------------------+
+--------------------------------------+
|  Inner_Iter|   Time(sec)|    rms[Rho]|
+--------------------------------------+
|        4010|  1.2528e-01|   -6.939996|
|        4020|  1.2513e-01|   -6.937232|
|        4030|  1.2499e-01|   -6.933169|
|        4040|  1.2488e-01|   -6.950045|
|        4050|  1.2484e-01|   -6.921700|
+-----------------------------------------------------------------------+
|        File Writing Summary       |              Filename             |
+-----------------------------------------------------------------------+
|SU2 binary restart                 |restart_flow_databladeVALIDATION_Blade_23.dat|
|                                   |                     (11247.8 MB/s)|
|Paraview                           |volume_flow_databladeVALIDATION_Blade_23.vtu|
|                                   |                     (880.349 MB/s)|
|Paraview surface                   |surface_flowdatabladeVALIDATION_Blade_23.vtu|
|                                   |                     (90.8045 MB/s)|
|SU2 ASCII restart                  |restart_flow_databladeVALIDATION_Blade_23.csv|
|                                   |                     (20.7247 MB/s)|
|CSV file                           |surface_flowdatabladeVALIDATION_Blade_23.csv|
|                                   |                     (18.1597 MB/s)|
+-----------------------------------------------------------------------+
+--------------------------------------+
|  Inner_Iter|   Time(sec)|    rms[Rho]|
+--------------------------------------+
|        4060|  1.2529e-01|   -6.928430|
|        4070|  1.2517e-01|   -6.927435|
|        4080|  1.2501e-01|   -6.955766|
|        4090|  1.2485e-01|   -6.957770|
|        4100|  1.2474e-01|   -6.942413|
+-----------------------------------------------------------------------+
|        File Writing Summary       |              Filename             |
+-----------------------------------------------------------------------+
|SU2 binary restart                 |restart_flow_databladeVALIDATION_Blade_23.dat|
|                                   |                     (10874.3 MB/s)|
|Paraview                           |volume_flow_databladeVALIDATION_Blade_23.vtu|
|                                   |                     (734.587 MB/s)|
|Paraview surface                   |surface_flowdatabladeVALIDATION_Blade_23.vtu|
|                                   |                     (55.5972 MB/s)|
|SU2 ASCII restart                  |restart_flow_databladeVALIDATION_Blade_23.csv|
|                                   |                     (20.4174 MB/s)|
|CSV file                           |surface_flowdatabladeVALIDATION_Blade_23.csv|
|                                   |                     (17.4972 MB/s)|
+-----------------------------------------------------------------------+
+--------------------------------------+
|  Inner_Iter|   Time(sec)|    rms[Rho]|
+--------------------------------------+
|        4110|  1.2529e-01|   -6.971335|
|        4120|  1.2524e-01|   -6.984462|
|        4130|  1.2515e-01|   -6.987030|
|        4140|  1.2508e-01|   -6.989373|
|        4149|  1.2505e-01|   -7.001525|

----------------------------- Solver Exit -------------------------------
All convergence criteria satisfied.
+-----------------------------------------------------------------------+
|      Convergence Field     |     Value    |   Criterion  |  Converged |
+-----------------------------------------------------------------------+
|                    rms[Rho]|      -7.00153|          < -7|         Yes|
+-----------------------------------------------------------------------+
-------------------------------------------------------------------------
+-----------------------------------------------------------------------+
|        File Writing Summary       |              Filename             |
+-----------------------------------------------------------------------+
|SU2 binary restart                 |restart_flow_databladeVALIDATION_Blade_23.dat|
|                                   |                     (9670.05 MB/s)|
|Paraview                           |volume_flow_databladeVALIDATION_Blade_23.vtu|
|                                   |                     (609.581 MB/s)|
|Paraview surface                   |surface_flowdatabladeVALIDATION_Blade_23.vtu|
|                                   |                     (115.038 MB/s)|
|SU2 ASCII restart                  |restart_flow_databladeVALIDATION_Blade_23.csv|
|                                   |                     (20.5497 MB/s)|
|CSV file                           |surface_flowdatabladeVALIDATION_Blade_23.csv|
|                                   |                     (18.9917 MB/s)|
+-----------------------------------------------------------------------+

--------------------------- Finalizing Solver ---------------------------
Deleted CNumerics container.
Deleted CIntegration container.
Deleted CSolver container.
Deleted CIteration container.
Deleted CInterface container.
Deleted CGeometry container.
Deleted CFreeFormDefBox class.
Deleted CSurfaceMovement class.
Deleted CVolumetricMovement class.
Deleted CConfig container.
Deleted nInst container.
Deleted COutput class.
-------------------------------------------------------------------------


-------------------------- Performance Summary --------------------------
Simulation totals:
   Wall-clock time (hrs):    0.144955 |            Core-hrs:     1.73946
                   Cores:          12 |          DOFs/point:           5
             Points/core:     5039.92 |   Ghost points/core:     159.167
 Ghost/Owned Point Ratio:   0.0315812 | 

Preprocessing phase:
       Preproc. Time (s):    0.471322 |   Preproc. Time (%):   0.0903195

Compute phase:
        Compute Time (s):      518.98 |    Compute Time (%):     99.4521
         Iteration count:        4150 |         Avg. s/iter:    0.125055
     Core-s/iter/Mpoints:     24.0534 |           Mpoints/s:    0.498891

Output phase:
         Output Time (s):     2.38774 |     Output Time (%):    0.457562
            Output count:           1 |       Avg. s/output:     2.38774
 Restart Aggr. BW (MB/s):      872515 |           MB/s/core:     72709.6
-------------------------------------------------------------------------


------------------------- Exit Success (SU2_CFD) ------------------------

