
-------------------------------------------------------------------------
|    ___ _   _ ___                                                      |
|   / __| | | |_  )   Release 8.0.1 "Harrier"                           |
|   \__ \ |_| |/ /                                                      |
|   |___/\___//___|   Suite (Computational Fluid Dynamics Code)         |
|                                                                       |
-------------------------------------------------------------------------
| SU2 Project Website: https://su2code.github.io                        |
|                                                                       |
| The SU2 Project is maintained by the SU2 Foundation                   |
| (http://su2foundation.org)                                            |
-------------------------------------------------------------------------
| Copyright 2012-2024, SU2 Contributors                                 |
|                                                                       |
| SU2 is free software; you can redistribute it and/or                  |
| modify it under the terms of the GNU Lesser General Public            |
| License as published by the Free Software Foundation; either          |
| version 2.1 of the License, or (at your option) any later version.    |
|                                                                       |
| SU2 is distributed in the hope that it will be useful,                |
| but WITHOUT ANY WARRANTY; without even the implied warranty of        |
| MERCHANTABILITY or FITNESS FOR A PARTICULAR PURPOSE. See the GNU      |
| Lesser General Public License for more details.                       |
|                                                                       |
| You should have received a copy of the GNU Lesser General Public      |
| License along with SU2. If not, see <http://www.gnu.org/licenses/>.   |
-------------------------------------------------------------------------

Parsing config file for zone 0

----------------- Physical Case Definition ( Zone 0 ) -------------------
Compressible RANS equations.
Turbulence model: Spalart-Allmaras-noft2-BCM
Hybrid RANS/LES: No Hybrid RANS/LES
Mach number: 0.5.
Angle of attack (AoA): -8 deg, and angle of sideslip (AoS): 0 deg.
Reynolds number: 600000. Reference length 1.00072.
No restart solution, use the values at infinity (freestream).
Dimensional simulation.
The reference area will be computed using y(2D) or z(3D) projection.
The semi-span will be computed using the max y(3D) value.
The reference length is 1.00072 m.
Reference origin for moment evaluation is (0, 0, 0).
Surface(s) where the force coefficients are evaluated: blade1.

Surface(s) plotted in the output file: blade1.
Surface(s) to be analyzed in detail: inlet, outlet, blade1.
Input mesh file name: cascade2D_databladeVALIDATION_Blade_17.su2

--------------- Space Numerical Integration ( Zone 0 ) ------------------
Jameson-Schmidt-Turkel scheme (2nd order in space) for the flow inviscid terms.
JST viscous coefficients (2nd & 4th): 0.5, 0.02.
The method includes a grid stretching correction (p = 0.3).
Scalar upwind solver for the turbulence model.
First order integration in space.
Average of gradients with correction (viscous flow terms).
Average of gradients with correction (viscous turbulence terms).
Gradient for upwind reconstruction: inverse-distance weighted Least-Squares.
Gradient for viscous and source terms: inverse-distance weighted Least-Squares.

--------------- Time Numerical Integration  ( Zone 0 ) ------------------
Local time stepping (steady state simulation).
Euler implicit method for the flow equations.
FGMRES is used for solving the linear system.
Using a LU-SGS preconditioning.
Convergence criteria of the linear solver: 0.0001.
Max number of linear iterations: 10.
V Multigrid Cycle, with 3 multigrid levels.
Damping factor for the residual restriction: 0.75.
Damping factor for the correction prolongation: 0.75.
CFL adaptation. Factor down: 0.1, factor up: 1.2,
                lower limit: 0.1, upper limit: 100,
                acceptable linear residual: 0.001.
+-------------------------------------------+
|  MG Level| Presmooth|PostSmooth|CorrectSmo|
+-------------------------------------------+
|         0|         1|         0|         1|
|         1|         2|         2|         2|
|         2|         3|         3|         3|
|         3|         3|         0|         0|
+-------------------------------------------+
Courant-Friedrichs-Lewy number:       12
Euler implicit time integration for the turbulence model.

------------------ Convergence Criteria  ( Zone 0 ) ---------------------
Maximum number of solver subiterations: 7000.
Begin convergence monitoring at iteration 500.
Residual minimum value: 1e-7.
Cauchy series min. value: 1e-10.
Number of Cauchy elements: 100.
Begin windowed time average at iteration 0.

-------------------- Output Information ( Zone 0 ) ----------------------
File writing frequency: 
+------------------------------------+
|                     File| Frequency|
+------------------------------------+
|                  RESTART|        50|
|                 PARAVIEW|        50|
|         SURFACE_PARAVIEW|        50|
|                      CSV|        50|
|              SURFACE_CSV|        50|
+------------------------------------+
Writing the convergence history file every 1 inner iterations.
Writing the screen convergence history every 10 inner iterations.
The tabular file format is CSV (.csv).
Convergence history file name: history_databladeVALIDATION_Blade_17.
Forces breakdown file name: forces_breakdown.dat.
Surface file name: surface_flowdatabladeVALIDATION_Blade_17.
Volume file name: volume_flow_databladeVALIDATION_Blade_17.
Restart file name: restart_flow_databladeVALIDATION_Blade_17.dat.

------------- Config File Boundary Information ( Zone 0 ) ---------------
+-----------------------------------------------------------------------+
|                        Marker Type|                        Marker Name|
+-----------------------------------------------------------------------+
|                  Periodic boundary|               symmetricWallsBOTTOM|
|                                   |                  symmetricWallsTOP|
+-----------------------------------------------------------------------+
|                     Inlet boundary|                              inlet|
+-----------------------------------------------------------------------+
|                    Outlet boundary|                             outlet|
+-----------------------------------------------------------------------+
|                     Heat flux wall|                             blade1|
|                                   |                             blade2|
+-----------------------------------------------------------------------+

-------------------- Output Preprocessing ( Zone 0 ) --------------------
  Info: Ignoring the following screen output fields:
  LINSOL_ITER_TRANS, LINSOL_RESIDUAL_TRANS
Screen output fields: INNER_ITER, CUR_TIME, RMS_DENSITY
  Info: Ignoring the following history output groups:
  RMS_TKE, RMS_DISSIPATION
History output group(s): INNER_ITER, WALL_TIME, RMS_DENSITY, RMS_MOMENTUM-X, RMS_ENERGY, LINSOL, CFL_NUMBER, FLOW_COEFF_SURF, AERO_COEFF_SURF
Convergence field(s): RMS_DENSITY
Warning: No (valid) fields chosen for time convergence monitoring. Time convergence monitoring inactive.
Volume output fields: COORDINATES, SOLUTION, PRIMITIVE, RESIDUAL, TIMESTEP, MESH_QUALITY, VORTEX_IDENTIFICATION

------------------- Geometry Preprocessing ( Zone 0 ) -------------------
Two dimensional problem.
19421 grid points before partitioning.
32990 volume elements before partitioning.
5 surface markers.
31 boundary elements in index 0 (Marker = inlet).
470 boundary elements in index 1 (Marker = symmetricWallsBOTTOM).
470 boundary elements in index 2 (Marker = symmetricWallsTOP).
31 boundary elements in index 3 (Marker = outlet).
194 boundary elements in index 4 (Marker = blade1).
Executing the partitioning functions.
Building the graph adjacency structure.
Calling ParMETIS... graph partitioning complete (804 edge cuts).
Distributing ParMETIS coloring.
Rebalancing vertices.
Rebalancing volume element connectivity.
Rebalancing markers and surface elements.
20484 vertices including ghost points. 
33785 interior elements including halo cells. 
28885 triangles.
4900 quadrilaterals.
Establishing MPI communication patterns.
Setting point connectivity.
Renumbering points (Reverse Cuthill McKee Ordering).
Recomputing point connectivity.
Setting element connectivity.
Checking the numerical grid orientation.
All volume elements are correctly orientend.
There has been a re-orientation of 607 LINE surface elements.
Identifying edges and vertices.
Setting the control volume structure.
Area of the computational grid: 4.05973.
Searching for the closest normal neighbors to the surfaces.
Storing a mapping from global to local point index.
Compute the surface curvature.
Max K: 72.8623. Mean K: 0.718674. Standard deviation K: 4.93344.
Checking for periodicity.
WARNING: Periodicity has been detected. Disabling multigrid. 
Computing mesh quality statistics for the dual control volumes.
+--------------------------------------------------------------+
|           Mesh Quality Metric|        Minimum|        Maximum|
+--------------------------------------------------------------+
|    Orthogonality Angle (deg.)|        29.0106|        89.9999|
|     CV Face Area Aspect Ratio|        1.00002|        2564.65|
|           CV Sub-Volume Ratio|              1|        6.40629|
+--------------------------------------------------------------+
Finding max control volume width.
Communicating number of neighbors.
Reference length = 1.01863 m.
Wetted area = 3.58916 m.
Area projection in the x-plane = 1.30262 m, y-plane = 1.01863 m.
Max. coordinate in the x-direction = 1.01867 m, y-direction = 1.09516 m.
Min. coordinate in the x-direction = -0.000454216 m, y-direction = -0.207957 m.
Matching the periodic boundary points for marker pair 1.
 Matched 942 points with a max distance of: 2.0417e-13.
Computing wall distances.

-------------------- Solver Preprocessing ( Zone 0 ) --------------------
Viscous flow: Computing pressure using the ideal gas law
based on the free-stream temperature and a density computed
from the Reynolds number.
Force coefficients computed using free-stream values.

-- Models:
+------------------------------------------------------------------------------+
|          Viscosity Model|        Conductivity Model|              Fluid Model|
+------------------------------------------------------------------------------+
|               SUTHERLAND|          CONSTANT_PRANDTL|                IDEAL_GAS|
+------------------------------------------------------------------------------+
-- Fluid properties:
+------------------------------------------------------------------------------+
|                  Name|    Dim. value|    Ref. value|      Unit|Non-dim. value|
+------------------------------------------------------------------------------+
|        Ref. Viscosity|     1.716e-05|             1|   N.s/m^2|     1.716e-05|
|      Sutherland Temp.|        273.15|             1|         K|        273.15|
|     Sutherland Const.|         110.4|             1|         K|         110.4|
+------------------------------------------------------------------------------+
|        Prandtl (Lam.)|             -|             -|         -|          0.72|
|       Prandtl (Turb.)|             -|             -|         -|           0.9|
+------------------------------------------------------------------------------+
|          Gas Constant|       287.058|             1|  N.m/kg.K|       287.058|
|      Spec. Heat Ratio|             -|             -|         -|           1.4|
+------------------------------------------------------------------------------+
-- Initial and free-stream conditions:
+------------------------------------------------------------------------------+
|                  Name|    Dim. value|    Ref. value|      Unit|Non-dim. value|
+------------------------------------------------------------------------------+
|       Static Pressure|       5489.87|             1|        Pa|       5489.87|
|               Density|     0.0637486|             1|    kg/m^3|     0.0637486|
|           Temperature|           300|             1|         K|           300|
|          Total Energy|        230364|             1|   m^2/s^2|        230364|
|            Velocity-X|       171.922|             1|       m/s|       171.922|
|            Velocity-Y|      -24.1621|             1|       m/s|      -24.1621|
|    Velocity Magnitude|       173.612|             1|       m/s|       173.612|
+------------------------------------------------------------------------------+
|             Viscosity|   1.84592e-05|             1|   N.s/m^2|   1.84592e-05|
|          Conductivity|             -|             1|   W/m^2.K|             -|
|     Turb. Kin. Energy|       55.3843|             1|   m^2/s^2|       55.3843|
|     Spec. Dissipation|   1.91269e+06|             1|       1/s|   1.91269e+06|
+------------------------------------------------------------------------------+
|           Mach Number|             -|             -|         -|           0.5|
|       Reynolds Number|             -|             -|         -|        600000|
+------------------------------------------------------------------------------+
Initialize Jacobian structure (Navier-Stokes). MG level: 0.
Initialize Jacobian structure (SA model).

------------------- Numerics Preprocessing ( Zone 0 ) -------------------

----------------- Integration Preprocessing ( Zone 0 ) ------------------

------------------- Iteration Preprocessing ( Zone 0 ) ------------------
Euler/Navier-Stokes/RANS fluid iteration.

------------------------------ Begin Solver -----------------------------

Simulation Run using the Single-zone Driver
WARNING: SU2 was not compiled for an AVX-capable architecture. Performance could be better,
         see https://su2code.github.io/docs_v7/Build-SU2-Linux-MacOS/#compiler-optimizations
+--------------------------------------+
|  Inner_Iter|    Cur_Time|    rms[Rho]|
+--------------------------------------+
|           0|  0.0000e+00|   -1.765920|
|          10|  0.0000e+00|   -2.501456|
|          20|  0.0000e+00|   -2.518637|
|          30|  0.0000e+00|   -2.386327|
|          40|  0.0000e+00|   -2.464107|
|          50|  0.0000e+00|   -2.524825|
+-----------------------------------------------------------------------+
|        File Writing Summary       |              Filename             |
+-----------------------------------------------------------------------+
|SU2 binary restart                 |restart_flow_databladeVALIDATION_Blade_17.dat|
|                                   |                     (5033.24 MB/s)|
|Paraview                           |volume_flow_databladeVALIDATION_Blade_17.vtu|
|                                   |                     (469.343 MB/s)|
|Paraview surface                   |surface_flowdatabladeVALIDATION_Blade_17.vtu|
|                                   |                     (33.6626 MB/s)|
|SU2 ASCII restart                  |restart_flow_databladeVALIDATION_Blade_17.csv|
|                                   |                     (21.8767 MB/s)|
|CSV file                           |surface_flowdatabladeVALIDATION_Blade_17.csv|
|                                   |                     (15.4897 MB/s)|
+-----------------------------------------------------------------------+
+--------------------------------------+
|  Inner_Iter|    Cur_Time|    rms[Rho]|
+--------------------------------------+
|          60|  0.0000e+00|   -2.492203|
|          70|  0.0000e+00|   -2.534603|
|          80|  0.0000e+00|   -2.615827|
|          90|  0.0000e+00|   -2.615479|
|         100|  0.0000e+00|   -2.551507|
+-----------------------------------------------------------------------+
|        File Writing Summary       |              Filename             |
+-----------------------------------------------------------------------+
|SU2 binary restart                 |restart_flow_databladeVALIDATION_Blade_17.dat|
|                                   |                     (5392.84 MB/s)|
|Paraview                           |volume_flow_databladeVALIDATION_Blade_17.vtu|
|                                   |                     (513.623 MB/s)|
|Paraview surface                   |surface_flowdatabladeVALIDATION_Blade_17.vtu|
|                                   |                     (39.6819 MB/s)|
|SU2 ASCII restart                  |restart_flow_databladeVALIDATION_Blade_17.csv|
|                                   |                     (21.9251 MB/s)|
|CSV file                           |surface_flowdatabladeVALIDATION_Blade_17.csv|
|                                   |                     (15.2742 MB/s)|
+-----------------------------------------------------------------------+
+--------------------------------------+
|  Inner_Iter|    Cur_Time|    rms[Rho]|
+--------------------------------------+
|         110|  0.0000e+00|   -2.572524|
|         120|  0.0000e+00|   -2.616774|
|         130|  0.0000e+00|   -2.635140|
|         140|  0.0000e+00|   -2.634794|
|         150|  0.0000e+00|   -2.649569|
+-----------------------------------------------------------------------+
|        File Writing Summary       |              Filename             |
+-----------------------------------------------------------------------+
|SU2 binary restart                 |restart_flow_databladeVALIDATION_Blade_17.dat|
|                                   |                     (5040.65 MB/s)|
|Paraview                           |volume_flow_databladeVALIDATION_Blade_17.vtu|
|                                   |                     (501.139 MB/s)|
|Paraview surface                   |surface_flowdatabladeVALIDATION_Blade_17.vtu|
|                                   |                     (35.9145 MB/s)|
|SU2 ASCII restart                  |restart_flow_databladeVALIDATION_Blade_17.csv|
|                                   |                     (21.8847 MB/s)|
|CSV file                           |surface_flowdatabladeVALIDATION_Blade_17.csv|
|                                   |                     (16.6275 MB/s)|
+-----------------------------------------------------------------------+
+--------------------------------------+
|  Inner_Iter|    Cur_Time|    rms[Rho]|
+--------------------------------------+
|         160|  0.0000e+00|   -2.662607|
|         170|  0.0000e+00|   -2.580848|
|         180|  0.0000e+00|   -2.450934|
|         190|  0.0000e+00|   -2.281054|
|         200|  0.0000e+00|   -2.188492|
+-----------------------------------------------------------------------+
|        File Writing Summary       |              Filename             |
+-----------------------------------------------------------------------+
|SU2 binary restart                 |restart_flow_databladeVALIDATION_Blade_17.dat|
|                                   |                     (5360.78 MB/s)|
|Paraview                           |volume_flow_databladeVALIDATION_Blade_17.vtu|
|                                   |                     (514.761 MB/s)|
|Paraview surface                   |surface_flowdatabladeVALIDATION_Blade_17.vtu|
|                                   |                     (36.1045 MB/s)|
|SU2 ASCII restart                  |restart_flow_databladeVALIDATION_Blade_17.csv|
|                                   |                     (21.4861 MB/s)|
|CSV file                           |surface_flowdatabladeVALIDATION_Blade_17.csv|
|                                   |                     (14.9992 MB/s)|
+-----------------------------------------------------------------------+
+--------------------------------------+
|  Inner_Iter|    Cur_Time|    rms[Rho]|
+--------------------------------------+
|         210|  0.0000e+00|   -2.166481|
|         220|  0.0000e+00|   -2.153769|
|         230|  0.0000e+00|   -2.260319|
|         240|  0.0000e+00|   -2.294055|
|         250|  0.0000e+00|   -2.227831|
+-----------------------------------------------------------------------+
|        File Writing Summary       |              Filename             |
+-----------------------------------------------------------------------+
|SU2 binary restart                 |restart_flow_databladeVALIDATION_Blade_17.dat|
|                                   |                     (5261.47 MB/s)|
|Paraview                           |volume_flow_databladeVALIDATION_Blade_17.vtu|
|                                   |                     (516.351 MB/s)|
|Paraview surface                   |surface_flowdatabladeVALIDATION_Blade_17.vtu|
|                                   |                     (36.9472 MB/s)|
|SU2 ASCII restart                  |restart_flow_databladeVALIDATION_Blade_17.csv|
|                                   |                      (21.751 MB/s)|
|CSV file                           |surface_flowdatabladeVALIDATION_Blade_17.csv|
|                                   |                     (15.5084 MB/s)|
+-----------------------------------------------------------------------+
+--------------------------------------+
|  Inner_Iter|    Cur_Time|    rms[Rho]|
+--------------------------------------+
|         260|  0.0000e+00|   -2.169181|
|         270|  0.0000e+00|   -2.111581|
|         280|  0.0000e+00|   -2.094414|
|         290|  0.0000e+00|   -1.900476|
|         300|  0.0000e+00|   -1.836958|
+-----------------------------------------------------------------------+
|        File Writing Summary       |              Filename             |
+-----------------------------------------------------------------------+
|SU2 binary restart                 |restart_flow_databladeVALIDATION_Blade_17.dat|
|                                   |                     (3369.68 MB/s)|
|Paraview                           |volume_flow_databladeVALIDATION_Blade_17.vtu|
|                                   |                     (505.809 MB/s)|
|Paraview surface                   |surface_flowdatabladeVALIDATION_Blade_17.vtu|
|                                   |                     (35.9614 MB/s)|
|SU2 ASCII restart                  |restart_flow_databladeVALIDATION_Blade_17.csv|
|                                   |                     (21.3618 MB/s)|
|CSV file                           |surface_flowdatabladeVALIDATION_Blade_17.csv|
|                                   |                     (13.5281 MB/s)|
+-----------------------------------------------------------------------+
+--------------------------------------+
|  Inner_Iter|    Cur_Time|    rms[Rho]|
+--------------------------------------+
|         310|  0.0000e+00|   -1.766265|
|         320|  0.0000e+00|   -1.653942|
|         330|  0.0000e+00|   -1.635815|
|         340|  0.0000e+00|   -1.637568|
|         350|  0.0000e+00|   -1.603042|
+-----------------------------------------------------------------------+
|        File Writing Summary       |              Filename             |
+-----------------------------------------------------------------------+
|SU2 binary restart                 |restart_flow_databladeVALIDATION_Blade_17.dat|
|                                   |                     (5462.17 MB/s)|
|Paraview                           |volume_flow_databladeVALIDATION_Blade_17.vtu|
|                                   |                     (495.003 MB/s)|
|Paraview surface                   |surface_flowdatabladeVALIDATION_Blade_17.vtu|
|                                   |                     (36.8465 MB/s)|
|SU2 ASCII restart                  |restart_flow_databladeVALIDATION_Blade_17.csv|
|                                   |                     (22.0319 MB/s)|
|CSV file                           |surface_flowdatabladeVALIDATION_Blade_17.csv|
|                                   |                     (14.7834 MB/s)|
+-----------------------------------------------------------------------+
+--------------------------------------+
|  Inner_Iter|    Cur_Time|    rms[Rho]|
+--------------------------------------+
|         360|  0.0000e+00|   -1.572176|
|         370|  0.0000e+00|   -1.563471|
|         380|  0.0000e+00|   -1.552400|
|         390|  0.0000e+00|   -1.537866|
|         400|  0.0000e+00|   -1.523848|
+-----------------------------------------------------------------------+
|        File Writing Summary       |              Filename             |
+-----------------------------------------------------------------------+
|SU2 binary restart                 |restart_flow_databladeVALIDATION_Blade_17.dat|
|                                   |                     (5314.78 MB/s)|
|Paraview                           |volume_flow_databladeVALIDATION_Blade_17.vtu|
|                                   |                     (484.891 MB/s)|
|Paraview surface                   |surface_flowdatabladeVALIDATION_Blade_17.vtu|
|                                   |                     (37.6693 MB/s)|
|SU2 ASCII restart                  |restart_flow_databladeVALIDATION_Blade_17.csv|
|                                   |                      (21.744 MB/s)|
|CSV file                           |surface_flowdatabladeVALIDATION_Blade_17.csv|
|                                   |                     (16.9952 MB/s)|
+-----------------------------------------------------------------------+
+--------------------------------------+
|  Inner_Iter|    Cur_Time|    rms[Rho]|
+--------------------------------------+
|         410|  0.0000e+00|   -1.512161|
|         420|  0.0000e+00|   -1.501130|
|         430|  0.0000e+00|   -1.493598|
|         440|  0.0000e+00|   -1.600433|
|         450|  0.0000e+00|   -1.634850|
+-----------------------------------------------------------------------+
|        File Writing Summary       |              Filename             |
+-----------------------------------------------------------------------+
|SU2 binary restart                 |restart_flow_databladeVALIDATION_Blade_17.dat|
|                                   |                     (5293.98 MB/s)|
|Paraview                           |volume_flow_databladeVALIDATION_Blade_17.vtu|
|                                   |                     (480.424 MB/s)|
|Paraview surface                   |surface_flowdatabladeVALIDATION_Blade_17.vtu|
|                                   |                     (31.7116 MB/s)|
|SU2 ASCII restart                  |restart_flow_databladeVALIDATION_Blade_17.csv|
|                                   |                     (21.7912 MB/s)|
|CSV file                           |surface_flowdatabladeVALIDATION_Blade_17.csv|
|                                   |                     (15.1646 MB/s)|
+-----------------------------------------------------------------------+
+--------------------------------------+
|  Inner_Iter|    Cur_Time|    rms[Rho]|
+--------------------------------------+
|         460|  0.0000e+00|   -1.663660|
|         470|  0.0000e+00|   -1.662624|
|         480|  0.0000e+00|   -1.625739|
|         490|  0.0000e+00|   -1.563467|
|         500|  0.0000e+00|   -1.504383|
+-----------------------------------------------------------------------+
|        File Writing Summary       |              Filename             |
+-----------------------------------------------------------------------+
|SU2 binary restart                 |restart_flow_databladeVALIDATION_Blade_17.dat|
|                                   |                     (5444.24 MB/s)|
|Paraview                           |volume_flow_databladeVALIDATION_Blade_17.vtu|
|                                   |                     (524.205 MB/s)|
|Paraview surface                   |surface_flowdatabladeVALIDATION_Blade_17.vtu|
|                                   |                     (37.6362 MB/s)|
|SU2 ASCII restart                  |restart_flow_databladeVALIDATION_Blade_17.csv|
|                                   |                     (21.8095 MB/s)|
|CSV file                           |surface_flowdatabladeVALIDATION_Blade_17.csv|
|                                   |                     (14.7942 MB/s)|
+-----------------------------------------------------------------------+
+--------------------------------------+
|  Inner_Iter|    Cur_Time|    rms[Rho]|
+--------------------------------------+
|         510|  0.0000e+00|   -1.462797|
|         520|  0.0000e+00|   -1.437732|
|         530|  0.0000e+00|   -1.425197|
|         540|  0.0000e+00|   -1.420067|
|         550|  0.0000e+00|   -1.422589|
+-----------------------------------------------------------------------+
|        File Writing Summary       |              Filename             |
+-----------------------------------------------------------------------+
|SU2 binary restart                 |restart_flow_databladeVALIDATION_Blade_17.dat|
|                                   |                     (5306.55 MB/s)|
|Paraview                           |volume_flow_databladeVALIDATION_Blade_17.vtu|
|                                   |                     (433.585 MB/s)|
|Paraview surface                   |surface_flowdatabladeVALIDATION_Blade_17.vtu|
|                                   |                     (36.1062 MB/s)|
|SU2 ASCII restart                  |restart_flow_databladeVALIDATION_Blade_17.csv|
|                                   |                     (21.0838 MB/s)|
|CSV file                           |surface_flowdatabladeVALIDATION_Blade_17.csv|
|                                   |                     (13.5806 MB/s)|
+-----------------------------------------------------------------------+
+--------------------------------------+
|  Inner_Iter|    Cur_Time|    rms[Rho]|
+--------------------------------------+
|         560|  0.0000e+00|   -1.427848|
|         570|  0.0000e+00|   -1.432177|
|         580|  0.0000e+00|   -1.436821|
|         590|  0.0000e+00|   -1.440981|
|         600|  0.0000e+00|   -1.444282|
+-----------------------------------------------------------------------+
|        File Writing Summary       |              Filename             |
+-----------------------------------------------------------------------+
|SU2 binary restart                 |restart_flow_databladeVALIDATION_Blade_17.dat|
|                                   |                     (3350.57 MB/s)|
|Paraview                           |volume_flow_databladeVALIDATION_Blade_17.vtu|
|                                   |                      (520.06 MB/s)|
|Paraview surface                   |surface_flowdatabladeVALIDATION_Blade_17.vtu|
|                                   |                     (33.5075 MB/s)|
|SU2 ASCII restart                  |restart_flow_databladeVALIDATION_Blade_17.csv|
|                                   |                     (21.4778 MB/s)|
|CSV file                           |surface_flowdatabladeVALIDATION_Blade_17.csv|
|                                   |                     (13.6134 MB/s)|
+-----------------------------------------------------------------------+
+--------------------------------------+
|  Inner_Iter|    Cur_Time|    rms[Rho]|
+--------------------------------------+
|         610|  0.0000e+00|   -1.443786|
|         620|  0.0000e+00|   -1.454535|
|         630|  0.0000e+00|   -1.468118|
|         640|  0.0000e+00|   -1.476816|
|         650|  0.0000e+00|   -1.488953|
+-----------------------------------------------------------------------+
|        File Writing Summary       |              Filename             |
+-----------------------------------------------------------------------+
|SU2 binary restart                 |restart_flow_databladeVALIDATION_Blade_17.dat|
|                                   |                     (5490.18 MB/s)|
|Paraview                           |volume_flow_databladeVALIDATION_Blade_17.vtu|
|                                   |                     (449.419 MB/s)|
|Paraview surface                   |surface_flowdatabladeVALIDATION_Blade_17.vtu|
|                                   |                     (34.6552 MB/s)|
|SU2 ASCII restart                  |restart_flow_databladeVALIDATION_Blade_17.csv|
|                                   |                     (21.2213 MB/s)|
|CSV file                           |surface_flowdatabladeVALIDATION_Blade_17.csv|
|                                   |                     (13.2066 MB/s)|
+-----------------------------------------------------------------------+
+--------------------------------------+
|  Inner_Iter|    Cur_Time|    rms[Rho]|
+--------------------------------------+
|         660|  0.0000e+00|   -1.500791|
|         670|  0.0000e+00|   -1.559463|
|         680|  0.0000e+00|   -1.534805|
|         690|  0.0000e+00|   -1.380272|
|         700|  0.0000e+00|   -1.347631|
+-----------------------------------------------------------------------+
|        File Writing Summary       |              Filename             |
+-----------------------------------------------------------------------+
|SU2 binary restart                 |restart_flow_databladeVALIDATION_Blade_17.dat|
|                                   |                     (5268.48 MB/s)|
|Paraview                           |volume_flow_databladeVALIDATION_Blade_17.vtu|
|                                   |                     (486.898 MB/s)|
|Paraview surface                   |surface_flowdatabladeVALIDATION_Blade_17.vtu|
|                                   |                     (36.5063 MB/s)|
|SU2 ASCII restart                  |restart_flow_databladeVALIDATION_Blade_17.csv|
|                                   |                     (21.4825 MB/s)|
|CSV file                           |surface_flowdatabladeVALIDATION_Blade_17.csv|
|                                   |                     (13.2413 MB/s)|
+-----------------------------------------------------------------------+
+--------------------------------------+
|  Inner_Iter|    Cur_Time|    rms[Rho]|
+--------------------------------------+
|         710|  0.0000e+00|   -1.387030|
|         720|  0.0000e+00|   -1.329148|
|         730|  0.0000e+00|   -1.178521|
|         740|  0.0000e+00|   -1.211875|
|         750|  0.0000e+00|   -1.295599|
+-----------------------------------------------------------------------+
|        File Writing Summary       |              Filename             |
+-----------------------------------------------------------------------+
|SU2 binary restart                 |restart_flow_databladeVALIDATION_Blade_17.dat|
|                                   |                     (5165.25 MB/s)|
|Paraview                           |volume_flow_databladeVALIDATION_Blade_17.vtu|
|                                   |                      (547.01 MB/s)|
|Paraview surface                   |surface_flowdatabladeVALIDATION_Blade_17.vtu|
|                                   |                     (30.9689 MB/s)|
|SU2 ASCII restart                  |restart_flow_databladeVALIDATION_Blade_17.csv|
|                                   |                     (21.3875 MB/s)|
|CSV file                           |surface_flowdatabladeVALIDATION_Blade_17.csv|
|                                   |                     (14.0482 MB/s)|
+-----------------------------------------------------------------------+
+--------------------------------------+
|  Inner_Iter|    Cur_Time|    rms[Rho]|
+--------------------------------------+
|         760|  0.0000e+00|   -1.382507|
|         770|  0.0000e+00|   -1.373239|
|         780|  0.0000e+00|   -1.317654|
|         790|  0.0000e+00|   -1.319145|
|         800|  0.0000e+00|   -1.229282|
+-----------------------------------------------------------------------+
|        File Writing Summary       |              Filename             |
+-----------------------------------------------------------------------+
|SU2 binary restart                 |restart_flow_databladeVALIDATION_Blade_17.dat|
|                                   |                      (5304.9 MB/s)|
|Paraview                           |volume_flow_databladeVALIDATION_Blade_17.vtu|
|                                   |                     (504.162 MB/s)|
|Paraview surface                   |surface_flowdatabladeVALIDATION_Blade_17.vtu|
|                                   |                     (38.2032 MB/s)|
|SU2 ASCII restart                  |restart_flow_databladeVALIDATION_Blade_17.csv|
|                                   |                      (21.828 MB/s)|
|CSV file                           |surface_flowdatabladeVALIDATION_Blade_17.csv|
|                                   |                     (13.8716 MB/s)|
+-----------------------------------------------------------------------+
+--------------------------------------+
|  Inner_Iter|    Cur_Time|    rms[Rho]|
+--------------------------------------+
|         810|  0.0000e+00|   -1.260815|
|         820|  0.0000e+00|   -1.267543|
|         830|  0.0000e+00|   -1.130370|
|         840|  0.0000e+00|   -1.143186|
|         850|  0.0000e+00|   -1.133737|
+-----------------------------------------------------------------------+
|        File Writing Summary       |              Filename             |
+-----------------------------------------------------------------------+
|SU2 binary restart                 |restart_flow_databladeVALIDATION_Blade_17.dat|
|                                   |                      (5393.4 MB/s)|
|Paraview                           |volume_flow_databladeVALIDATION_Blade_17.vtu|
|                                   |                     (525.908 MB/s)|
|Paraview surface                   |surface_flowdatabladeVALIDATION_Blade_17.vtu|
|                                   |                     (38.5277 MB/s)|
|SU2 ASCII restart                  |restart_flow_databladeVALIDATION_Blade_17.csv|
|                                   |                     (21.6095 MB/s)|
|CSV file                           |surface_flowdatabladeVALIDATION_Blade_17.csv|
|                                   |                     (14.7044 MB/s)|
+-----------------------------------------------------------------------+
+--------------------------------------+
|  Inner_Iter|    Cur_Time|    rms[Rho]|
+--------------------------------------+
|         860|  0.0000e+00|   -1.133755|
|         870|  0.0000e+00|   -1.130705|
|         880|  0.0000e+00|   -1.124928|
|         890|  0.0000e+00|   -1.117339|
|         900|  0.0000e+00|   -1.107725|
+-----------------------------------------------------------------------+
|        File Writing Summary       |              Filename             |
+-----------------------------------------------------------------------+
|SU2 binary restart                 |restart_flow_databladeVALIDATION_Blade_17.dat|
|                                   |                     (5410.43 MB/s)|
|Paraview                           |volume_flow_databladeVALIDATION_Blade_17.vtu|
|                                   |                     (515.867 MB/s)|
|Paraview surface                   |surface_flowdatabladeVALIDATION_Blade_17.vtu|
|                                   |                     (37.5117 MB/s)|
|SU2 ASCII restart                  |restart_flow_databladeVALIDATION_Blade_17.csv|
|                                   |                     (21.6776 MB/s)|
|CSV file                           |surface_flowdatabladeVALIDATION_Blade_17.csv|
|                                   |                     (13.0433 MB/s)|
+-----------------------------------------------------------------------+
+--------------------------------------+
|  Inner_Iter|    Cur_Time|    rms[Rho]|
+--------------------------------------+
|         910|  0.0000e+00|   -1.098715|
|         920|  0.0000e+00|   -1.094857|
|         930|  0.0000e+00|   -1.091673|
|         940|  0.0000e+00|   -1.088795|
|         950|  0.0000e+00|   -1.086038|
+-----------------------------------------------------------------------+
|        File Writing Summary       |              Filename             |
+-----------------------------------------------------------------------+
|SU2 binary restart                 |restart_flow_databladeVALIDATION_Blade_17.dat|
|                                   |                     (5823.56 MB/s)|
|Paraview                           |volume_flow_databladeVALIDATION_Blade_17.vtu|
|                                   |                     (513.712 MB/s)|
|Paraview surface                   |surface_flowdatabladeVALIDATION_Blade_17.vtu|
|                                   |                     (36.6416 MB/s)|
|SU2 ASCII restart                  |restart_flow_databladeVALIDATION_Blade_17.csv|
|                                   |                     (21.4979 MB/s)|
|CSV file                           |surface_flowdatabladeVALIDATION_Blade_17.csv|
|                                   |                     (13.4169 MB/s)|
+-----------------------------------------------------------------------+
+--------------------------------------+
|  Inner_Iter|    Cur_Time|    rms[Rho]|
+--------------------------------------+
|         960|  0.0000e+00|   -1.082860|
|         970|  0.0000e+00|   -1.078687|
|         980|  0.0000e+00|   -1.073695|
|         990|  0.0000e+00|   -1.068199|
|        1000|  0.0000e+00|   -1.062962|
+-----------------------------------------------------------------------+
|        File Writing Summary       |              Filename             |
+-----------------------------------------------------------------------+
|SU2 binary restart                 |restart_flow_databladeVALIDATION_Blade_17.dat|
|                                   |                     (5660.67 MB/s)|
|Paraview                           |volume_flow_databladeVALIDATION_Blade_17.vtu|
|                                   |                     (502.265 MB/s)|
|Paraview surface                   |surface_flowdatabladeVALIDATION_Blade_17.vtu|
|                                   |                     (37.3789 MB/s)|
|SU2 ASCII restart                  |restart_flow_databladeVALIDATION_Blade_17.csv|
|                                   |                     (21.6251 MB/s)|
|CSV file                           |surface_flowdatabladeVALIDATION_Blade_17.csv|
|                                   |                     (13.8225 MB/s)|
+-----------------------------------------------------------------------+
+--------------------------------------+
|  Inner_Iter|    Cur_Time|    rms[Rho]|
+--------------------------------------+
|        1010|  0.0000e+00|   -1.058457|
|        1020|  0.0000e+00|   -1.055132|
|        1030|  0.0000e+00|   -1.052451|
|        1040|  0.0000e+00|   -1.050141|
|        1050|  0.0000e+00|   -1.048323|
+-----------------------------------------------------------------------+
|        File Writing Summary       |              Filename             |
+-----------------------------------------------------------------------+
|SU2 binary restart                 |restart_flow_databladeVALIDATION_Blade_17.dat|
|                                   |                      (5304.9 MB/s)|
|Paraview                           |volume_flow_databladeVALIDATION_Blade_17.vtu|
|                                   |                     (502.124 MB/s)|
|Paraview surface                   |surface_flowdatabladeVALIDATION_Blade_17.vtu|
|                                   |                     (32.5264 MB/s)|
|SU2 ASCII restart                  |restart_flow_databladeVALIDATION_Blade_17.csv|
|                                   |                     (21.5605 MB/s)|
|CSV file                           |surface_flowdatabladeVALIDATION_Blade_17.csv|
|                                   |                     (15.2696 MB/s)|
+-----------------------------------------------------------------------+
+--------------------------------------+
|  Inner_Iter|    Cur_Time|    rms[Rho]|
+--------------------------------------+
|        1060|  0.0000e+00|   -1.046575|
|        1070|  0.0000e+00|   -1.044910|
|        1080|  0.0000e+00|   -1.043180|
|        1090|  0.0000e+00|   -1.041262|
|        1100|  0.0000e+00|   -1.039062|
+-----------------------------------------------------------------------+
|        File Writing Summary       |              Filename             |
+-----------------------------------------------------------------------+
|SU2 binary restart                 |restart_flow_databladeVALIDATION_Blade_17.dat|
|                                   |                     (5353.52 MB/s)|
|Paraview                           |volume_flow_databladeVALIDATION_Blade_17.vtu|
|                                   |                     (513.948 MB/s)|
|Paraview surface                   |surface_flowdatabladeVALIDATION_Blade_17.vtu|
|                                   |                     (36.1519 MB/s)|
|SU2 ASCII restart                  |restart_flow_databladeVALIDATION_Blade_17.csv|
|                                   |                     (21.6004 MB/s)|
|CSV file                           |surface_flowdatabladeVALIDATION_Blade_17.csv|
|                                   |                     (11.9888 MB/s)|
+-----------------------------------------------------------------------+
+--------------------------------------+
|  Inner_Iter|    Cur_Time|    rms[Rho]|
+--------------------------------------+
|        1110|  0.0000e+00|   -1.036671|
|        1120|  0.0000e+00|   -1.034030|
|        1130|  0.0000e+00|   -1.031206|
|        1140|  0.0000e+00|   -1.028498|
|        1150|  0.0000e+00|   -1.026027|
+-----------------------------------------------------------------------+
|        File Writing Summary       |              Filename             |
+-----------------------------------------------------------------------+
|SU2 binary restart                 |restart_flow_databladeVALIDATION_Blade_17.dat|
|                                   |                     (5486.07 MB/s)|
|Paraview                           |volume_flow_databladeVALIDATION_Blade_17.vtu|
|                                   |                     (498.194 MB/s)|
|Paraview surface                   |surface_flowdatabladeVALIDATION_Blade_17.vtu|
|                                   |                     (36.4511 MB/s)|
|SU2 ASCII restart                  |restart_flow_databladeVALIDATION_Blade_17.csv|
|                                   |                     (21.0863 MB/s)|
|CSV file                           |surface_flowdatabladeVALIDATION_Blade_17.csv|
|                                   |                      (14.597 MB/s)|
+-----------------------------------------------------------------------+
+--------------------------------------+
|  Inner_Iter|    Cur_Time|    rms[Rho]|
+--------------------------------------+
|        1160|  0.0000e+00|   -1.023486|
|        1170|  0.0000e+00|   -1.020891|
|        1180|  0.0000e+00|   -1.017204|
|        1190|  0.0000e+00|   -1.003742|
|        1200|  0.0000e+00|   -0.933931|
+-----------------------------------------------------------------------+
|        File Writing Summary       |              Filename             |
+-----------------------------------------------------------------------+
|SU2 binary restart                 |restart_flow_databladeVALIDATION_Blade_17.dat|
|                                   |                      (5275.5 MB/s)|
|Paraview                           |volume_flow_databladeVALIDATION_Blade_17.vtu|
|                                   |                     (476.292 MB/s)|
|Paraview surface                   |surface_flowdatabladeVALIDATION_Blade_17.vtu|
|                                   |                     (36.4683 MB/s)|
|SU2 ASCII restart                  |restart_flow_databladeVALIDATION_Blade_17.csv|
|                                   |                      (21.294 MB/s)|
|CSV file                           |surface_flowdatabladeVALIDATION_Blade_17.csv|
|                                   |                     (16.5811 MB/s)|
+-----------------------------------------------------------------------+
+--------------------------------------+
|  Inner_Iter|    Cur_Time|    rms[Rho]|
+--------------------------------------+
|        1210|  0.0000e+00|   -0.992391|
|        1220|  0.0000e+00|   -1.172628|
|        1230|  0.0000e+00|   -1.214091|
|        1240|  0.0000e+00|   -1.227169|
|        1250|  0.0000e+00|   -1.247525|
+-----------------------------------------------------------------------+
|        File Writing Summary       |              Filename             |
+-----------------------------------------------------------------------+
|SU2 binary restart                 |restart_flow_databladeVALIDATION_Blade_17.dat|
|                                   |                     (5348.51 MB/s)|
|Paraview                           |volume_flow_databladeVALIDATION_Blade_17.vtu|
|                                   |                     (492.271 MB/s)|
|Paraview surface                   |surface_flowdatabladeVALIDATION_Blade_17.vtu|
|                                   |                     (37.3789 MB/s)|
|SU2 ASCII restart                  |restart_flow_databladeVALIDATION_Blade_17.csv|
|                                   |                      (21.871 MB/s)|
|CSV file                           |surface_flowdatabladeVALIDATION_Blade_17.csv|
|                                   |                     (17.9832 MB/s)|
+-----------------------------------------------------------------------+
+--------------------------------------+
|  Inner_Iter|    Cur_Time|    rms[Rho]|
+--------------------------------------+
|        1260|  0.0000e+00|   -1.249248|
|        1270|  0.0000e+00|   -1.210566|
|        1280|  0.0000e+00|   -1.191869|
|        1290|  0.0000e+00|   -1.168121|
|        1300|  0.0000e+00|   -1.141929|
+-----------------------------------------------------------------------+
|        File Writing Summary       |              Filename             |
+-----------------------------------------------------------------------+
|SU2 binary restart                 |restart_flow_databladeVALIDATION_Blade_17.dat|
|                                   |                     (364.052 MB/s)|
|Paraview                           |volume_flow_databladeVALIDATION_Blade_17.vtu|
|                                   |                     (157.959 MB/s)|
|Paraview surface                   |surface_flowdatabladeVALIDATION_Blade_17.vtu|
|                                   |                     (5.15169 MB/s)|
|SU2 ASCII restart                  |restart_flow_databladeVALIDATION_Blade_17.csv|
|                                   |                     (21.1143 MB/s)|
|CSV file                           |surface_flowdatabladeVALIDATION_Blade_17.csv|
|                                   |                     (13.2398 MB/s)|
+-----------------------------------------------------------------------+
+--------------------------------------+
|  Inner_Iter|    Cur_Time|    rms[Rho]|
+--------------------------------------+
|        1310|  0.0000e+00|   -1.080628|
|        1320|  0.0000e+00|   -1.037045|
|        1330|  0.0000e+00|   -1.015085|
|        1340|  0.0000e+00|   -0.973693|


Error in "void CSolver::SetResidual_RMS(const CGeometry*, const CConfig*)": 
-------------------------------------------------------------------------
SU2 has diverged (NaN detected).
------------------------------ Error Exit -------------------------------



job aborted:
[ranks] message

[0] application aborted
aborting MPI_COMM_WORLD (comm=0x44000000), error 1, comm rank 0

[1-11] terminated

---- error analysis -----

[0] on LAPTOP-UFVPVEMV
SU2_CFD aborted the job. abort code 1

---- error analysis -----
