
-------------------------------------------------------------------------
|    ___ _   _ ___                                                      |
|   / __| | | |_  )   Release 8.0.1 "Harrier"                           |
|   \__ \ |_| |/ /                                                      |
|   |___/\___//___|   Suite (Computational Fluid Dynamics Code)         |
|                                                                       |
-------------------------------------------------------------------------
| SU2 Project Website: https://su2code.github.io                        |
|                                                                       |
| The SU2 Project is maintained by the SU2 Foundation                   |
| (http://su2foundation.org)                                            |
-------------------------------------------------------------------------
| Copyright 2012-2024, SU2 Contributors                                 |
|                                                                       |
| SU2 is free software; you can redistribute it and/or                  |
| modify it under the terms of the GNU Lesser General Public            |
| License as published by the Free Software Foundation; either          |
| version 2.1 of the License, or (at your option) any later version.    |
|                                                                       |
| SU2 is distributed in the hope that it will be useful,                |
| but WITHOUT ANY WARRANTY; without even the implied warranty of        |
| MERCHANTABILITY or FITNESS FOR A PARTICULAR PURPOSE. See the GNU      |
| Lesser General Public License for more details.                       |
|                                                                       |
| You should have received a copy of the GNU Lesser General Public      |
| License along with SU2. If not, see <http://www.gnu.org/licenses/>.   |
-------------------------------------------------------------------------

Parsing config file for zone 0

----------------- Physical Case Definition ( Zone 0 ) -------------------
Compressible RANS equations.
Turbulence model: Spalart-Allmaras-noft2-BCM
Hybrid RANS/LES: No Hybrid RANS/LES
Mach number: 0.5.
Angle of attack (AoA): -31 deg, and angle of sideslip (AoS): 0 deg.
Reynolds number: 600000. Reference length 1.00071.
No restart solution, use the values at infinity (freestream).
Dimensional simulation.
The reference area will be computed using y(2D) or z(3D) projection.
The semi-span will be computed using the max y(3D) value.
The reference length is 1.00071 m.
Reference origin for moment evaluation is (0, 0, 0).
Surface(s) where the force coefficients are evaluated: blade1.

Surface(s) plotted in the output file: blade1.
Surface(s) to be analyzed in detail: inlet, outlet, blade1.
Input mesh file name: cascade2D_databladeVALIDATION_Blade_18.su2

--------------- Space Numerical Integration ( Zone 0 ) ------------------
Jameson-Schmidt-Turkel scheme (2nd order in space) for the flow inviscid terms.
JST viscous coefficients (2nd & 4th): 0.5, 0.02.
The method includes a grid stretching correction (p = 0.3).
Scalar upwind solver for the turbulence model.
First order integration in space.
Average of gradients with correction (viscous flow terms).
Average of gradients with correction (viscous turbulence terms).
Gradient for upwind reconstruction: inverse-distance weighted Least-Squares.
Gradient for viscous and source terms: inverse-distance weighted Least-Squares.

--------------- Time Numerical Integration  ( Zone 0 ) ------------------
Local time stepping (steady state simulation).
Euler implicit method for the flow equations.
FGMRES is used for solving the linear system.
Using a LU-SGS preconditioning.
Convergence criteria of the linear solver: 0.0001.
Max number of linear iterations: 10.
V Multigrid Cycle, with 3 multigrid levels.
Damping factor for the residual restriction: 0.75.
Damping factor for the correction prolongation: 0.75.
CFL adaptation. Factor down: 0.1, factor up: 1.2,
                lower limit: 0.1, upper limit: 100,
                acceptable linear residual: 0.001.
+-------------------------------------------+
|  MG Level| Presmooth|PostSmooth|CorrectSmo|
+-------------------------------------------+
|         0|         1|         0|         1|
|         1|         2|         2|         2|
|         2|         3|         3|         3|
|         3|         3|         0|         0|
+-------------------------------------------+
Courant-Friedrichs-Lewy number:       12
Euler implicit time integration for the turbulence model.

------------------ Convergence Criteria  ( Zone 0 ) ---------------------
Maximum number of solver subiterations: 7000.
Begin convergence monitoring at iteration 500.
Residual minimum value: 1e-7.
Cauchy series min. value: 1e-10.
Number of Cauchy elements: 100.
Begin windowed time average at iteration 0.

-------------------- Output Information ( Zone 0 ) ----------------------
File writing frequency: 
+------------------------------------+
|                     File| Frequency|
+------------------------------------+
|                  RESTART|        50|
|                 PARAVIEW|        50|
|         SURFACE_PARAVIEW|        50|
|                      CSV|        50|
|              SURFACE_CSV|        50|
+------------------------------------+
Writing the convergence history file every 1 inner iterations.
Writing the screen convergence history every 10 inner iterations.
The tabular file format is CSV (.csv).
Convergence history file name: history_databladeVALIDATION_Blade_18.
Forces breakdown file name: forces_breakdown.dat.
Surface file name: surface_flowdatabladeVALIDATION_Blade_18.
Volume file name: volume_flow_databladeVALIDATION_Blade_18.
Restart file name: restart_flow_databladeVALIDATION_Blade_18.dat.

------------- Config File Boundary Information ( Zone 0 ) ---------------
+-----------------------------------------------------------------------+
|                        Marker Type|                        Marker Name|
+-----------------------------------------------------------------------+
|                  Periodic boundary|               symmetricWallsBOTTOM|
|                                   |                  symmetricWallsTOP|
+-----------------------------------------------------------------------+
|                     Inlet boundary|                              inlet|
+-----------------------------------------------------------------------+
|                    Outlet boundary|                             outlet|
+-----------------------------------------------------------------------+
|                     Heat flux wall|                             blade1|
|                                   |                             blade2|
+-----------------------------------------------------------------------+

-------------------- Output Preprocessing ( Zone 0 ) --------------------
  Info: Ignoring the following screen output fields:
  LINSOL_ITER_TRANS, LINSOL_RESIDUAL_TRANS
Screen output fields: INNER_ITER, WALL_TIME, RMS_DENSITY
  Info: Ignoring the following history output groups:
  RMS_TKE, RMS_DISSIPATION
History output group(s): INNER_ITER, WALL_TIME, RMS_DENSITY, RMS_MOMENTUM-X, RMS_ENERGY, LINSOL, CFL_NUMBER, FLOW_COEFF_SURF, AERO_COEFF_SURF
Convergence field(s): RMS_DENSITY
Warning: No (valid) fields chosen for time convergence monitoring. Time convergence monitoring inactive.
Volume output fields: COORDINATES, SOLUTION, PRIMITIVE, RESIDUAL, TIMESTEP, MESH_QUALITY, VORTEX_IDENTIFICATION

------------------- Geometry Preprocessing ( Zone 0 ) -------------------
Two dimensional problem.
62792 grid points before partitioning.
94689 volume elements before partitioning.
5 surface markers.
32 boundary elements in index 0 (Marker = inlet).
562 boundary elements in index 1 (Marker = symmetricWallsBOTTOM).
562 boundary elements in index 2 (Marker = symmetricWallsTOP).
89 boundary elements in index 3 (Marker = outlet).
1186 boundary elements in index 4 (Marker = blade1).
Executing the partitioning functions.
Building the graph adjacency structure.
Calling ParMETIS... graph partitioning complete (1292 edge cuts).
Distributing ParMETIS coloring.
Rebalancing vertices.
Rebalancing volume element connectivity.
Rebalancing markers and surface elements.
64413 vertices including ghost points. 
95968 interior elements including halo cells. 
67188 triangles.
28780 quadrilaterals.
Establishing MPI communication patterns.
Setting point connectivity.
Renumbering points (Reverse Cuthill McKee Ordering).
Recomputing point connectivity.
Setting element connectivity.
Checking the numerical grid orientation.
All volume elements are correctly orientend.
There has been a re-orientation of 1200 LINE surface elements.
Identifying edges and vertices.
Setting the control volume structure.
Area of the computational grid: 4.03949.
Searching for the closest normal neighbors to the surfaces.
Storing a mapping from global to local point index.
Compute the surface curvature.
Max K: 102.634. Mean K: 2.55563. Standard deviation K: 9.97405.
Checking for periodicity.
WARNING: Periodicity has been detected. Disabling multigrid. 
Computing mesh quality statistics for the dual control volumes.
+--------------------------------------------------------------+
|           Mesh Quality Metric|        Minimum|        Maximum|
+--------------------------------------------------------------+
|    Orthogonality Angle (deg.)|        29.0114|             90|
|     CV Face Area Aspect Ratio|        1.00009|        425.756|
|           CV Sub-Volume Ratio|              1|        15.7792|
+--------------------------------------------------------------+
Finding max control volume width.
Communicating number of neighbors.
Reference length = 1.02628 m.
Wetted area = 3.62821 m.
Area projection in the x-plane = 1.2983 m, y-plane = 1.02628 m.
Max. coordinate in the x-direction = 1.01736 m, y-direction = 0.93517 m.
Min. coordinate in the x-direction = -0.00895368 m, y-direction = -0.363136 m.
Matching the periodic boundary points for marker pair 1.
 Matched 1126 points with a max distance of: 2.19708e-10.
Computing wall distances.

-------------------- Solver Preprocessing ( Zone 0 ) --------------------
Viscous flow: Computing pressure using the ideal gas law
based on the free-stream temperature and a density computed
from the Reynolds number.
Force coefficients computed using free-stream values.

-- Models:
+------------------------------------------------------------------------------+
|          Viscosity Model|        Conductivity Model|              Fluid Model|
+------------------------------------------------------------------------------+
|               SUTHERLAND|          CONSTANT_PRANDTL|                IDEAL_GAS|
+------------------------------------------------------------------------------+
-- Fluid properties:
+------------------------------------------------------------------------------+
|                  Name|    Dim. value|    Ref. value|      Unit|Non-dim. value|
+------------------------------------------------------------------------------+
|        Ref. Viscosity|     1.716e-05|             1|   N.s/m^2|     1.716e-05|
|      Sutherland Temp.|        273.15|             1|         K|        273.15|
|     Sutherland Const.|         110.4|             1|         K|         110.4|
+------------------------------------------------------------------------------+
|        Prandtl (Lam.)|             -|             -|         -|          0.72|
|       Prandtl (Turb.)|             -|             -|         -|           0.9|
+------------------------------------------------------------------------------+
|          Gas Constant|       287.058|             1|  N.m/kg.K|       287.058|
|      Spec. Heat Ratio|             -|             -|         -|           1.4|
+------------------------------------------------------------------------------+
-- Initial and free-stream conditions:
+------------------------------------------------------------------------------+
|                  Name|    Dim. value|    Ref. value|      Unit|Non-dim. value|
+------------------------------------------------------------------------------+
|       Static Pressure|       5489.94|             1|        Pa|       5489.94|
|               Density|     0.0637495|             1|    kg/m^3|     0.0637495|
|           Temperature|           300|             1|         K|           300|
|          Total Energy|        230364|             1|   m^2/s^2|        230364|
|            Velocity-X|       148.814|             1|       m/s|       148.814|
|            Velocity-Y|      -89.4167|             1|       m/s|      -89.4167|
|    Velocity Magnitude|       173.612|             1|       m/s|       173.612|
+------------------------------------------------------------------------------+
|             Viscosity|   1.84592e-05|             1|   N.s/m^2|   1.84592e-05|
|          Conductivity|             -|             1|   W/m^2.K|             -|
|     Turb. Kin. Energy|       55.3843|             1|   m^2/s^2|       55.3843|
|     Spec. Dissipation|   1.91272e+06|             1|       1/s|   1.91272e+06|
+------------------------------------------------------------------------------+
|           Mach Number|             -|             -|         -|           0.5|
|       Reynolds Number|             -|             -|         -|        600000|
+------------------------------------------------------------------------------+
Initialize Jacobian structure (Navier-Stokes). MG level: 0.
Initialize Jacobian structure (SA model).

------------------- Numerics Preprocessing ( Zone 0 ) -------------------

----------------- Integration Preprocessing ( Zone 0 ) ------------------

------------------- Iteration Preprocessing ( Zone 0 ) ------------------
Euler/Navier-Stokes/RANS fluid iteration.

------------------------------ Begin Solver -----------------------------

Simulation Run using the Single-zone Driver
WARNING: SU2 was not compiled for an AVX-capable architecture. Performance could be better,
         see https://su2code.github.io/docs_v7/Build-SU2-Linux-MacOS/#compiler-optimizations
+--------------------------------------+
|  Inner_Iter|   Time(sec)|    rms[Rho]|
+--------------------------------------+
|           0|  7.3356e-02|   -2.382960|
|          10|  6.4179e-02|   -3.023067|
|          20|  7.0179e-02|   -2.821304|
|          30|  6.6592e-02|   -2.802208|
|          40|  6.7115e-02|   -2.756572|
|          50|  6.8810e-02|   -2.857079|
+-----------------------------------------------------------------------+
|        File Writing Summary       |              Filename             |
+-----------------------------------------------------------------------+
|SU2 binary restart                 |restart_flow_databladeVALIDATION_Blade_18.dat|
|                                   |                     (14016.9 MB/s)|
|Paraview                           |volume_flow_databladeVALIDATION_Blade_18.vtu|
|                                   |                     (976.249 MB/s)|
|Paraview surface                   |surface_flowdatabladeVALIDATION_Blade_18.vtu|
|                                   |                     (98.9924 MB/s)|
|SU2 ASCII restart                  |restart_flow_databladeVALIDATION_Blade_18.csv|
|                                   |                     (21.6463 MB/s)|
|CSV file                           |surface_flowdatabladeVALIDATION_Blade_18.csv|
|                                   |                     (19.8412 MB/s)|
+-----------------------------------------------------------------------+
+--------------------------------------+
|  Inner_Iter|   Time(sec)|    rms[Rho]|
+--------------------------------------+
|          60|  1.0618e-01|   -3.009347|
|          70|  1.0045e-01|   -3.011706|
|          80|  9.7267e-02|   -2.839793|
|          90|  9.4015e-02|   -2.960813|
|         100|  9.1554e-02|   -2.920149|
+-----------------------------------------------------------------------+
|        File Writing Summary       |              Filename             |
+-----------------------------------------------------------------------+
|SU2 binary restart                 |restart_flow_databladeVALIDATION_Blade_18.dat|
|                                   |                     (14711.7 MB/s)|
|Paraview                           |volume_flow_databladeVALIDATION_Blade_18.vtu|
|                                   |                     (1066.33 MB/s)|
|Paraview surface                   |surface_flowdatabladeVALIDATION_Blade_18.vtu|
|                                   |                     (102.004 MB/s)|
|SU2 ASCII restart                  |restart_flow_databladeVALIDATION_Blade_18.csv|
|                                   |                     (21.7169 MB/s)|
|CSV file                           |surface_flowdatabladeVALIDATION_Blade_18.csv|
|                                   |                      (21.842 MB/s)|
+-----------------------------------------------------------------------+
+--------------------------------------+
|  Inner_Iter|   Time(sec)|    rms[Rho]|
+--------------------------------------+
|         110|  1.1040e-01|   -3.011118|
|         120|  1.0694e-01|   -3.021158|
|         130|  1.0408e-01|   -2.987101|
|         140|  1.0183e-01|   -2.975062|
|         150|  9.9986e-02|   -2.941966|
+-----------------------------------------------------------------------+
|        File Writing Summary       |              Filename             |
+-----------------------------------------------------------------------+
|SU2 binary restart                 |restart_flow_databladeVALIDATION_Blade_18.dat|
|                                   |                     (12866.8 MB/s)|
|Paraview                           |volume_flow_databladeVALIDATION_Blade_18.vtu|
|                                   |                      (1035.4 MB/s)|
|Paraview surface                   |surface_flowdatabladeVALIDATION_Blade_18.vtu|
|                                   |                     (98.6158 MB/s)|
|SU2 ASCII restart                  |restart_flow_databladeVALIDATION_Blade_18.csv|
|                                   |                     (22.1228 MB/s)|
|CSV file                           |surface_flowdatabladeVALIDATION_Blade_18.csv|
|                                   |                     (21.6024 MB/s)|
+-----------------------------------------------------------------------+
+--------------------------------------+
|  Inner_Iter|   Time(sec)|    rms[Rho]|
+--------------------------------------+
|         160|  1.1242e-01|   -2.989254|
|         170|  1.0953e-01|   -3.105065|
|         180|  1.0701e-01|   -3.030273|
|         190|  1.0513e-01|   -2.997815|
|         200|  1.0303e-01|   -3.119593|
+-----------------------------------------------------------------------+
|        File Writing Summary       |              Filename             |
+-----------------------------------------------------------------------+
|SU2 binary restart                 |restart_flow_databladeVALIDATION_Blade_18.dat|
|                                   |                     (12530.5 MB/s)|
|Paraview                           |volume_flow_databladeVALIDATION_Blade_18.vtu|
|                                   |                       (991.2 MB/s)|
|Paraview surface                   |surface_flowdatabladeVALIDATION_Blade_18.vtu|
|                                   |                     (101.004 MB/s)|
|SU2 ASCII restart                  |restart_flow_databladeVALIDATION_Blade_18.csv|
|                                   |                     (21.7325 MB/s)|
|CSV file                           |surface_flowdatabladeVALIDATION_Blade_18.csv|
|                                   |                     (20.1285 MB/s)|
+-----------------------------------------------------------------------+
+--------------------------------------+
|  Inner_Iter|   Time(sec)|    rms[Rho]|
+--------------------------------------+
|         210|  1.1217e-01|   -3.154675|
|         220|  1.1022e-01|   -3.074064|
|         230|  1.0834e-01|   -3.104357|
|         240|  1.0639e-01|   -3.189178|
|         250|  1.0495e-01|   -3.128736|
+-----------------------------------------------------------------------+
|        File Writing Summary       |              Filename             |
+-----------------------------------------------------------------------+
|SU2 binary restart                 |restart_flow_databladeVALIDATION_Blade_18.dat|
|                                   |                       (13116 MB/s)|
|Paraview                           |volume_flow_databladeVALIDATION_Blade_18.vtu|
|                                   |                     (1028.42 MB/s)|
|Paraview surface                   |surface_flowdatabladeVALIDATION_Blade_18.vtu|
|                                   |                     (100.641 MB/s)|
|SU2 ASCII restart                  |restart_flow_databladeVALIDATION_Blade_18.csv|
|                                   |                     (21.5219 MB/s)|
|CSV file                           |surface_flowdatabladeVALIDATION_Blade_18.csv|
|                                   |                     (21.4969 MB/s)|
+-----------------------------------------------------------------------+
+--------------------------------------+
|  Inner_Iter|   Time(sec)|    rms[Rho]|
+--------------------------------------+
|         260|  1.1258e-01|   -3.165537|
|         270|  1.1067e-01|   -3.277673|
|         280|  1.0900e-01|   -3.303070|
|         290|  1.0766e-01|   -3.210162|
|         300|  1.0629e-01|   -3.297529|
+-----------------------------------------------------------------------+
|        File Writing Summary       |              Filename             |
+-----------------------------------------------------------------------+
|SU2 binary restart                 |restart_flow_databladeVALIDATION_Blade_18.dat|
|                                   |                     (12189.9 MB/s)|
|Paraview                           |volume_flow_databladeVALIDATION_Blade_18.vtu|
|                                   |                     (1075.21 MB/s)|
|Paraview surface                   |surface_flowdatabladeVALIDATION_Blade_18.vtu|
|                                   |                     (92.9685 MB/s)|
|SU2 ASCII restart                  |restart_flow_databladeVALIDATION_Blade_18.csv|
|                                   |                     (21.8671 MB/s)|
|CSV file                           |surface_flowdatabladeVALIDATION_Blade_18.csv|
|                                   |                     (21.1875 MB/s)|
+-----------------------------------------------------------------------+
+--------------------------------------+
|  Inner_Iter|   Time(sec)|    rms[Rho]|
+--------------------------------------+
|         310|  1.1224e-01|   -3.378165|
|         320|  1.1076e-01|   -3.363194|
|         330|  1.0951e-01|   -3.300032|
|         340|  1.0813e-01|   -3.438758|
|         350|  1.0680e-01|   -3.449952|
+-----------------------------------------------------------------------+
|        File Writing Summary       |              Filename             |
+-----------------------------------------------------------------------+
|SU2 binary restart                 |restart_flow_databladeVALIDATION_Blade_18.dat|
|                                   |                     (11741.3 MB/s)|
|Paraview                           |volume_flow_databladeVALIDATION_Blade_18.vtu|
|                                   |                     (1027.32 MB/s)|
|Paraview surface                   |surface_flowdatabladeVALIDATION_Blade_18.vtu|
|                                   |                     (102.142 MB/s)|
|SU2 ASCII restart                  |restart_flow_databladeVALIDATION_Blade_18.csv|
|                                   |                     (21.3257 MB/s)|
|CSV file                           |surface_flowdatabladeVALIDATION_Blade_18.csv|
|                                   |                     (21.2498 MB/s)|
+-----------------------------------------------------------------------+
+--------------------------------------+
|  Inner_Iter|   Time(sec)|    rms[Rho]|
+--------------------------------------+
|         360|  1.1221e-01|   -3.393574|
|         370|  1.1111e-01|   -3.403817|
|         380|  1.0977e-01|   -3.540910|
|         390|  1.0872e-01|   -3.475456|
|         400|  1.0777e-01|   -3.351592|
+-----------------------------------------------------------------------+
|        File Writing Summary       |              Filename             |
+-----------------------------------------------------------------------+
|SU2 binary restart                 |restart_flow_databladeVALIDATION_Blade_18.dat|
|                                   |                     (13233.1 MB/s)|
|Paraview                           |volume_flow_databladeVALIDATION_Blade_18.vtu|
|                                   |                     (1099.21 MB/s)|
|Paraview surface                   |surface_flowdatabladeVALIDATION_Blade_18.vtu|
|                                   |                      (94.064 MB/s)|
|SU2 ASCII restart                  |restart_flow_databladeVALIDATION_Blade_18.csv|
|                                   |                     (21.9073 MB/s)|
|CSV file                           |surface_flowdatabladeVALIDATION_Blade_18.csv|
|                                   |                      (21.191 MB/s)|
+-----------------------------------------------------------------------+
+--------------------------------------+
|  Inner_Iter|   Time(sec)|    rms[Rho]|
+--------------------------------------+
|         410|  1.1244e-01|   -3.290597|
|         420|  1.1125e-01|   -3.329857|
|         430|  1.0980e-01|   -3.172554|
|         440|  1.0821e-01|   -3.165801|
|         450|  1.0709e-01|   -3.049384|
+-----------------------------------------------------------------------+
|        File Writing Summary       |              Filename             |
+-----------------------------------------------------------------------+
|SU2 binary restart                 |restart_flow_databladeVALIDATION_Blade_18.dat|
|                                   |                     (12643.2 MB/s)|
|Paraview                           |volume_flow_databladeVALIDATION_Blade_18.vtu|
|                                   |                      (1026.1 MB/s)|
|Paraview surface                   |surface_flowdatabladeVALIDATION_Blade_18.vtu|
|                                   |                     (95.7641 MB/s)|
|SU2 ASCII restart                  |restart_flow_databladeVALIDATION_Blade_18.csv|
|                                   |                      (21.523 MB/s)|
|CSV file                           |surface_flowdatabladeVALIDATION_Blade_18.csv|
|                                   |                     (21.6703 MB/s)|
+-----------------------------------------------------------------------+
+--------------------------------------+
|  Inner_Iter|   Time(sec)|    rms[Rho]|
+--------------------------------------+
|         460|  1.1118e-01|   -2.703194|
|         470|  1.0963e-01|   -2.725477|
|         480|  1.0839e-01|   -2.707518|
|         490|  1.0757e-01|   -2.577651|
|         500|  1.0680e-01|   -2.543634|
+-----------------------------------------------------------------------+
|        File Writing Summary       |              Filename             |
+-----------------------------------------------------------------------+
|SU2 binary restart                 |restart_flow_databladeVALIDATION_Blade_18.dat|
|                                   |                     (12689.6 MB/s)|
|Paraview                           |volume_flow_databladeVALIDATION_Blade_18.vtu|
|                                   |                     (1050.81 MB/s)|
|Paraview surface                   |surface_flowdatabladeVALIDATION_Blade_18.vtu|
|                                   |                     (142.217 MB/s)|
|SU2 ASCII restart                  |restart_flow_databladeVALIDATION_Blade_18.csv|
|                                   |                     (21.1731 MB/s)|
|CSV file                           |surface_flowdatabladeVALIDATION_Blade_18.csv|
|                                   |                     (20.3515 MB/s)|
+-----------------------------------------------------------------------+
+--------------------------------------+
|  Inner_Iter|   Time(sec)|    rms[Rho]|
+--------------------------------------+
|         510|  1.1052e-01|   -2.542036|
|         520|  1.0971e-01|   -2.417029|
|         530|  1.0894e-01|   -2.192658|
|         540|  1.0764e-01|   -2.267178|


Error in "void CSolver::SetResidual_RMS(const CGeometry*, const CConfig*)": 
-------------------------------------------------------------------------
SU2 has diverged (NaN detected).
------------------------------ Error Exit -------------------------------



job aborted:
[ranks] message

[0] application aborted
aborting MPI_COMM_WORLD (comm=0x44000000), error 1, comm rank 0

[1-11] terminated

---- error analysis -----

[0] on LAPTOP-UFVPVEMV
SU2_CFD aborted the job. abort code 1

---- error analysis -----
