
-------------------------------------------------------------------------
|    ___ _   _ ___                                                      |
|   / __| | | |_  )   Release 8.0.1 "Harrier"                           |
|   \__ \ |_| |/ /                                                      |
|   |___/\___//___|   Suite (Computational Fluid Dynamics Code)         |
|                                                                       |
-------------------------------------------------------------------------
| SU2 Project Website: https://su2code.github.io                        |
|                                                                       |
| The SU2 Project is maintained by the SU2 Foundation                   |
| (http://su2foundation.org)                                            |
-------------------------------------------------------------------------
| Copyright 2012-2024, SU2 Contributors                                 |
|                                                                       |
| SU2 is free software; you can redistribute it and/or                  |
| modify it under the terms of the GNU Lesser General Public            |
| License as published by the Free Software Foundation; either          |
| version 2.1 of the License, or (at your option) any later version.    |
|                                                                       |
| SU2 is distributed in the hope that it will be useful,                |
| but WITHOUT ANY WARRANTY; without even the implied warranty of        |
| MERCHANTABILITY or FITNESS FOR A PARTICULAR PURPOSE. See the GNU      |
| Lesser General Public License for more details.                       |
|                                                                       |
| You should have received a copy of the GNU Lesser General Public      |
| License along with SU2. If not, see <http://www.gnu.org/licenses/>.   |
-------------------------------------------------------------------------

Parsing config file for zone 0

----------------- Physical Case Definition ( Zone 0 ) -------------------
Compressible RANS equations.
Turbulence model: Spalart-Allmaras-noft2-BCM
Hybrid RANS/LES: No Hybrid RANS/LES
Mach number: 0.6.
Angle of attack (AoA): -40 deg, and angle of sideslip (AoS): 0 deg.
Reynolds number: 600000. Reference length 1.00074.
No restart solution, use the values at infinity (freestream).
Dimensional simulation.
The reference area will be computed using y(2D) or z(3D) projection.
The semi-span will be computed using the max y(3D) value.
The reference length is 1.00074 m.
Reference origin for moment evaluation is (0, 0, 0).
Surface(s) where the force coefficients are evaluated: blade1.

Surface(s) plotted in the output file: blade1.
Surface(s) to be analyzed in detail: inlet, outlet, blade1.
Input mesh file name: cascade2D_databladeVALIDATION_Blade_6.su2

--------------- Space Numerical Integration ( Zone 0 ) ------------------
Jameson-Schmidt-Turkel scheme (2nd order in space) for the flow inviscid terms.
JST viscous coefficients (2nd & 4th): 0.5, 0.02.
The method includes a grid stretching correction (p = 0.3).
Scalar upwind solver for the turbulence model.
First order integration in space.
Average of gradients with correction (viscous flow terms).
Average of gradients with correction (viscous turbulence terms).
Gradient for upwind reconstruction: inverse-distance weighted Least-Squares.
Gradient for viscous and source terms: inverse-distance weighted Least-Squares.

--------------- Time Numerical Integration  ( Zone 0 ) ------------------
Local time stepping (steady state simulation).
Euler implicit method for the flow equations.
FGMRES is used for solving the linear system.
Using a LU-SGS preconditioning.
Convergence criteria of the linear solver: 0.0001.
Max number of linear iterations: 10.
V Multigrid Cycle, with 3 multigrid levels.
Damping factor for the residual restriction: 0.75.
Damping factor for the correction prolongation: 0.75.
CFL adaptation. Factor down: 0.1, factor up: 1.2,
                lower limit: 0.1, upper limit: 100,
                acceptable linear residual: 0.001.
+-------------------------------------------+
|  MG Level| Presmooth|PostSmooth|CorrectSmo|
+-------------------------------------------+
|         0|         1|         0|         1|
|         1|         2|         2|         2|
|         2|         3|         3|         3|
|         3|         3|         0|         0|
+-------------------------------------------+
Courant-Friedrichs-Lewy number:       12
Euler implicit time integration for the turbulence model.

------------------ Convergence Criteria  ( Zone 0 ) ---------------------
Maximum number of solver subiterations: 7000.
Begin convergence monitoring at iteration 500.
Residual minimum value: 1e-7.
Cauchy series min. value: 1e-10.
Number of Cauchy elements: 100.
Begin windowed time average at iteration 0.

-------------------- Output Information ( Zone 0 ) ----------------------
File writing frequency: 
+------------------------------------+
|                     File| Frequency|
+------------------------------------+
|                  RESTART|        50|
|                 PARAVIEW|        50|
|         SURFACE_PARAVIEW|        50|
|                      CSV|        50|
|              SURFACE_CSV|        50|
+------------------------------------+
Writing the convergence history file every 1 inner iterations.
Writing the screen convergence history every 10 inner iterations.
The tabular file format is CSV (.csv).
Convergence history file name: history_databladeVALIDATION_Blade_6.
Forces breakdown file name: forces_breakdown.dat.
Surface file name: surface_flowdatabladeVALIDATION_Blade_6.
Volume file name: volume_flow_databladeVALIDATION_Blade_6.
Restart file name: restart_flow_databladeVALIDATION_Blade_6.dat.

------------- Config File Boundary Information ( Zone 0 ) ---------------
+-----------------------------------------------------------------------+
|                        Marker Type|                        Marker Name|
+-----------------------------------------------------------------------+
|                  Periodic boundary|               symmetricWallsBOTTOM|
|                                   |                  symmetricWallsTOP|
+-----------------------------------------------------------------------+
|                     Inlet boundary|                              inlet|
+-----------------------------------------------------------------------+
|                    Outlet boundary|                             outlet|
+-----------------------------------------------------------------------+
|                     Heat flux wall|                             blade1|
|                                   |                             blade2|
+-----------------------------------------------------------------------+

-------------------- Output Preprocessing ( Zone 0 ) --------------------
  Info: Ignoring the following screen output fields:
  LINSOL_ITER_TRANS, LINSOL_RESIDUAL_TRANS
Screen output fields: INNER_ITER, WALL_TIME, RMS_DENSITY
  Info: Ignoring the following history output groups:
  RMS_TKE, RMS_DISSIPATION
History output group(s): INNER_ITER, WALL_TIME, RMS_DENSITY, RMS_MOMENTUM-X, RMS_ENERGY, LINSOL, CFL_NUMBER, FLOW_COEFF_SURF, AERO_COEFF_SURF
Convergence field(s): RMS_DENSITY
Warning: No (valid) fields chosen for time convergence monitoring. Time convergence monitoring inactive.
Volume output fields: COORDINATES, SOLUTION, PRIMITIVE, RESIDUAL, TIMESTEP, MESH_QUALITY, VORTEX_IDENTIFICATION

------------------- Geometry Preprocessing ( Zone 0 ) -------------------
Two dimensional problem.
66707 grid points before partitioning.
102722 volume elements before partitioning.
5 surface markers.
40 boundary elements in index 0 (Marker = inlet).
481 boundary elements in index 1 (Marker = symmetricWallsBOTTOM).
481 boundary elements in index 2 (Marker = symmetricWallsTOP).
40 boundary elements in index 3 (Marker = outlet).
1186 boundary elements in index 4 (Marker = blade1).
Executing the partitioning functions.
Building the graph adjacency structure.
Calling ParMETIS... graph partitioning complete (1398 edge cuts).
Distributing ParMETIS coloring.
Rebalancing vertices.
Rebalancing volume element connectivity.
Rebalancing markers and surface elements.
68426 vertices including ghost points. 
104111 interior elements including halo cells. 
75341 triangles.
28770 quadrilaterals.
Establishing MPI communication patterns.
Setting point connectivity.
Renumbering points (Reverse Cuthill McKee Ordering).
Recomputing point connectivity.
Setting element connectivity.
Checking the numerical grid orientation.
All volume elements are correctly orientend.
There has been a re-orientation of 1124 LINE surface elements.
Identifying edges and vertices.
Setting the control volume structure.
Area of the computational grid: 5.12042.
Searching for the closest normal neighbors to the surfaces.
Storing a mapping from global to local point index.
Compute the surface curvature.
Max K: 109.771. Mean K: 2.62327. Standard deviation K: 10.2118.
Checking for periodicity.
WARNING: Periodicity has been detected. Disabling multigrid. 
Computing mesh quality statistics for the dual control volumes.
+--------------------------------------------------------------+
|           Mesh Quality Metric|        Minimum|        Maximum|
+--------------------------------------------------------------+
|    Orthogonality Angle (deg.)|        29.0093|        89.9999|
|     CV Face Area Aspect Ratio|        1.00014|        474.838|
|           CV Sub-Volume Ratio|              1|        26.5554|
+--------------------------------------------------------------+
Finding max control volume width.
Communicating number of neighbors.
Reference length = 1.04135 m.
Wetted area = 3.8621 m.
Area projection in the x-plane = 1.42426 m, y-plane = 1.04135 m.
Max. coordinate in the x-direction = 1.01661 m, y-direction = 0.938104 m.
Min. coordinate in the x-direction = -0.0247586 m, y-direction = -0.48617 m.
Matching the periodic boundary points for marker pair 1.
 Matched 964 points with a max distance of: 1.69069e-13.
Computing wall distances.

-------------------- Solver Preprocessing ( Zone 0 ) --------------------
Viscous flow: Computing pressure using the ideal gas law
based on the free-stream temperature and a density computed
from the Reynolds number.
Force coefficients computed using free-stream values.

-- Models:
+------------------------------------------------------------------------------+
|          Viscosity Model|        Conductivity Model|              Fluid Model|
+------------------------------------------------------------------------------+
|               SUTHERLAND|          CONSTANT_PRANDTL|                IDEAL_GAS|
+------------------------------------------------------------------------------+
-- Fluid properties:
+------------------------------------------------------------------------------+
|                  Name|    Dim. value|    Ref. value|      Unit|Non-dim. value|
+------------------------------------------------------------------------------+
|        Ref. Viscosity|     1.716e-05|             1|   N.s/m^2|     1.716e-05|
|      Sutherland Temp.|        273.15|             1|         K|        273.15|
|     Sutherland Const.|         110.4|             1|         K|         110.4|
+------------------------------------------------------------------------------+
|        Prandtl (Lam.)|             -|             -|         -|          0.72|
|       Prandtl (Turb.)|             -|             -|         -|           0.9|
+------------------------------------------------------------------------------+
|          Gas Constant|       287.058|             1|  N.m/kg.K|       287.058|
|      Spec. Heat Ratio|             -|             -|         -|           1.4|
+------------------------------------------------------------------------------+
-- Initial and free-stream conditions:
+------------------------------------------------------------------------------+
|                  Name|    Dim. value|    Ref. value|      Unit|Non-dim. value|
+------------------------------------------------------------------------------+
|       Static Pressure|        4574.8|             1|        Pa|        4574.8|
|               Density|     0.0531228|             1|    kg/m^3|     0.0531228|
|           Temperature|           300|             1|         K|           300|
|          Total Energy|        236995|             1|   m^2/s^2|        236995|
|            Velocity-X|       159.593|             1|       m/s|       159.593|
|            Velocity-Y|      -133.915|             1|       m/s|      -133.915|
|    Velocity Magnitude|       208.334|             1|       m/s|       208.334|
+------------------------------------------------------------------------------+
|             Viscosity|   1.84592e-05|             1|   N.s/m^2|   1.84592e-05|
|          Conductivity|             -|             1|   W/m^2.K|             -|
|     Turb. Kin. Energy|       79.7533|             1|   m^2/s^2|       79.7533|
|     Spec. Dissipation|   2.29519e+06|             1|       1/s|   2.29519e+06|
+------------------------------------------------------------------------------+
|           Mach Number|             -|             -|         -|           0.6|
|       Reynolds Number|             -|             -|         -|        600000|
+------------------------------------------------------------------------------+
Initialize Jacobian structure (Navier-Stokes). MG level: 0.
Initialize Jacobian structure (SA model).

------------------- Numerics Preprocessing ( Zone 0 ) -------------------

----------------- Integration Preprocessing ( Zone 0 ) ------------------

------------------- Iteration Preprocessing ( Zone 0 ) ------------------
Euler/Navier-Stokes/RANS fluid iteration.

------------------------------ Begin Solver -----------------------------

Simulation Run using the Single-zone Driver
WARNING: SU2 was not compiled for an AVX-capable architecture. Performance could be better,
         see https://su2code.github.io/docs_v7/Build-SU2-Linux-MacOS/#compiler-optimizations
+--------------------------------------+
|  Inner_Iter|   Time(sec)|    rms[Rho]|
+--------------------------------------+
|           0|  1.4473e-01|   -2.373188|
|          10|  1.3098e-01|   -3.028803|
|          20|  1.5994e-01|   -2.868318|
|          30|  1.5181e-01|   -2.853912|
|          40|  1.7100e-01|   -2.791920|
|          50|  1.7683e-01|   -2.663825|
+-----------------------------------------------------------------------+
|        File Writing Summary       |              Filename             |
+-----------------------------------------------------------------------+
|SU2 binary restart                 |restart_flow_databladeVALIDATION_Blade_6.dat|
|                                   |                     (3145.17 MB/s)|
|Paraview                           |volume_flow_databladeVALIDATION_Blade_6.vtu|
|                                   |                     (58.9217 MB/s)|
|Paraview surface                   |surface_flowdatabladeVALIDATION_Blade_6.vtu|
|                                   |                     (18.4205 MB/s)|
|SU2 ASCII restart                  |restart_flow_databladeVALIDATION_Blade_6.csv|
|                                   |                     (17.5309 MB/s)|
|CSV file                           |surface_flowdatabladeVALIDATION_Blade_6.csv|
|                                   |                     (17.3828 MB/s)|
+-----------------------------------------------------------------------+
+--------------------------------------+
|  Inner_Iter|   Time(sec)|    rms[Rho]|
+--------------------------------------+
|          60|  2.2233e-01|   -2.700236|
|          70|  2.2153e-01|   -2.793686|
|          80|  2.2245e-01|   -2.886494|
|          90|  2.1879e-01|   -2.893328|
|         100|  2.2186e-01|   -2.948936|
+-----------------------------------------------------------------------+
|        File Writing Summary       |              Filename             |
+-----------------------------------------------------------------------+
|SU2 binary restart                 |restart_flow_databladeVALIDATION_Blade_6.dat|
|                                   |                     (3455.81 MB/s)|
|Paraview                           |volume_flow_databladeVALIDATION_Blade_6.vtu|
|                                   |                     (142.808 MB/s)|
|Paraview surface                   |surface_flowdatabladeVALIDATION_Blade_6.vtu|
|                                   |                     (32.3562 MB/s)|
|SU2 ASCII restart                  |restart_flow_databladeVALIDATION_Blade_6.csv|
|                                   |                     (18.4715 MB/s)|
|CSV file                           |surface_flowdatabladeVALIDATION_Blade_6.csv|
|                                   |                     (18.6582 MB/s)|
+-----------------------------------------------------------------------+
+--------------------------------------+
|  Inner_Iter|   Time(sec)|    rms[Rho]|
+--------------------------------------+
|         110|  2.3849e-01|   -3.025538|
|         120|  2.3485e-01|   -2.986059|
|         130|  2.2807e-01|   -2.928029|
|         140|  2.3034e-01|   -3.014043|
|         150|  2.2676e-01|   -3.025753|
+-----------------------------------------------------------------------+
|        File Writing Summary       |              Filename             |
+-----------------------------------------------------------------------+
|SU2 binary restart                 |restart_flow_databladeVALIDATION_Blade_6.dat|
|                                   |                      (79.233 MB/s)|
|Paraview                           |volume_flow_databladeVALIDATION_Blade_6.vtu|
|                                   |                      (36.675 MB/s)|
|Paraview surface                   |surface_flowdatabladeVALIDATION_Blade_6.vtu|
|                                   |                     (16.5083 MB/s)|
|SU2 ASCII restart                  |restart_flow_databladeVALIDATION_Blade_6.csv|
|                                   |                     (18.4276 MB/s)|
|CSV file                           |surface_flowdatabladeVALIDATION_Blade_6.csv|
|                                   |                     (17.6631 MB/s)|
+-----------------------------------------------------------------------+
+--------------------------------------+
|  Inner_Iter|   Time(sec)|    rms[Rho]|
+--------------------------------------+
|         160|  2.4732e-01|   -2.982173|
|         170|  2.4404e-01|   -2.939199|
|         180|  2.3703e-01|   -3.032777|
|         190|  2.3355e-01|   -3.035612|
|         200|  2.2988e-01|   -3.045436|
+-----------------------------------------------------------------------+
|        File Writing Summary       |              Filename             |
+-----------------------------------------------------------------------+
|SU2 binary restart                 |restart_flow_databladeVALIDATION_Blade_6.dat|
|                                   |                     (1381.99 MB/s)|
|Paraview                           |volume_flow_databladeVALIDATION_Blade_6.vtu|
|                                   |                     (393.581 MB/s)|
|Paraview surface                   |surface_flowdatabladeVALIDATION_Blade_6.vtu|
|                                   |                     (54.7127 MB/s)|
|SU2 ASCII restart                  |restart_flow_databladeVALIDATION_Blade_6.csv|
|                                   |                      (18.936 MB/s)|
|CSV file                           |surface_flowdatabladeVALIDATION_Blade_6.csv|
|                                   |                     (18.9043 MB/s)|
+-----------------------------------------------------------------------+
+--------------------------------------+
|  Inner_Iter|   Time(sec)|    rms[Rho]|
+--------------------------------------+
|         210|  2.3752e-01|   -3.025140|
|         220|  2.3245e-01|   -3.073158|
|         230|  2.2626e-01|   -3.092379|
|         240|  2.2092e-01|   -3.042497|
|         250|  2.1714e-01|   -3.057370|
+-----------------------------------------------------------------------+
|        File Writing Summary       |              Filename             |
+-----------------------------------------------------------------------+
|SU2 binary restart                 |restart_flow_databladeVALIDATION_Blade_6.dat|
|                                   |                     (11254.8 MB/s)|
|Paraview                           |volume_flow_databladeVALIDATION_Blade_6.vtu|
|                                   |                     (929.016 MB/s)|
|Paraview surface                   |surface_flowdatabladeVALIDATION_Blade_6.vtu|
|                                   |                     (96.3496 MB/s)|
|SU2 ASCII restart                  |restart_flow_databladeVALIDATION_Blade_6.csv|
|                                   |                     (21.2074 MB/s)|
|CSV file                           |surface_flowdatabladeVALIDATION_Blade_6.csv|
|                                   |                     (21.1966 MB/s)|
+-----------------------------------------------------------------------+
+--------------------------------------+
|  Inner_Iter|   Time(sec)|    rms[Rho]|
+--------------------------------------+
|         260|  2.2111e-01|   -3.104948|
|         270|  2.1624e-01|   -3.092510|
|         280|  2.1152e-01|   -3.053082|
|         290|  2.0716e-01|   -3.048172|
|         300|  2.0241e-01|   -3.083035|
+-----------------------------------------------------------------------+
|        File Writing Summary       |              Filename             |
+-----------------------------------------------------------------------+
|SU2 binary restart                 |restart_flow_databladeVALIDATION_Blade_6.dat|
|                                   |                     (12291.8 MB/s)|
|Paraview                           |volume_flow_databladeVALIDATION_Blade_6.vtu|
|                                   |                     (1049.26 MB/s)|
|Paraview surface                   |surface_flowdatabladeVALIDATION_Blade_6.vtu|
|                                   |                     (113.399 MB/s)|
|SU2 ASCII restart                  |restart_flow_databladeVALIDATION_Blade_6.csv|
|                                   |                     (21.1294 MB/s)|
|CSV file                           |surface_flowdatabladeVALIDATION_Blade_6.csv|
|                                   |                     (19.9026 MB/s)|
+-----------------------------------------------------------------------+
+--------------------------------------+
|  Inner_Iter|   Time(sec)|    rms[Rho]|
+--------------------------------------+
|         310|  2.0610e-01|   -3.062847|
|         320|  2.0180e-01|   -2.880565|
|         330|  1.9712e-01|   -2.670409|
|         340|  1.9275e-01|   -2.478633|
|         350|  1.8934e-01|   -2.327800|
+-----------------------------------------------------------------------+
|        File Writing Summary       |              Filename             |
+-----------------------------------------------------------------------+
|SU2 binary restart                 |restart_flow_databladeVALIDATION_Blade_6.dat|
|                                   |                     (13419.6 MB/s)|
|Paraview                           |volume_flow_databladeVALIDATION_Blade_6.vtu|
|                                   |                     (783.425 MB/s)|
|Paraview surface                   |surface_flowdatabladeVALIDATION_Blade_6.vtu|
|                                   |                     (22.4212 MB/s)|
|SU2 ASCII restart                  |restart_flow_databladeVALIDATION_Blade_6.csv|
|                                   |                      (20.498 MB/s)|
|CSV file                           |surface_flowdatabladeVALIDATION_Blade_6.csv|
|                                   |                     (19.0701 MB/s)|
+-----------------------------------------------------------------------+
+--------------------------------------+
|  Inner_Iter|   Time(sec)|    rms[Rho]|
+--------------------------------------+
|         360|  1.9330e-01|   -2.267246|
|         370|  1.8929e-01|   -2.236957|
|         380|  1.8582e-01|   -2.123301|
|         390|  1.8289e-01|   -1.962250|
|         400|  1.8051e-01|   -1.783340|
+-----------------------------------------------------------------------+
|        File Writing Summary       |              Filename             |
+-----------------------------------------------------------------------+
|SU2 binary restart                 |restart_flow_databladeVALIDATION_Blade_6.dat|
|                                   |                     (12666.3 MB/s)|
|Paraview                           |volume_flow_databladeVALIDATION_Blade_6.vtu|
|                                   |                      (213.16 MB/s)|
|Paraview surface                   |surface_flowdatabladeVALIDATION_Blade_6.vtu|
|                                   |                     (94.9157 MB/s)|
|SU2 ASCII restart                  |restart_flow_databladeVALIDATION_Blade_6.csv|
|                                   |                     (20.3158 MB/s)|
|CSV file                           |surface_flowdatabladeVALIDATION_Blade_6.csv|
|                                   |                     (21.3837 MB/s)|
+-----------------------------------------------------------------------+
+--------------------------------------+
|  Inner_Iter|   Time(sec)|    rms[Rho]|
+--------------------------------------+
|         410|  1.8403e-01|   -1.756549|
|         420|  1.8129e-01|   -1.621305|


Error in "void CSolver::SetResidual_RMS(const CGeometry*, const CConfig*)": 
-------------------------------------------------------------------------
SU2 has diverged (NaN detected).
------------------------------ Error Exit -------------------------------



job aborted:
[ranks] message

[0] application aborted
aborting MPI_COMM_WORLD (comm=0x44000000), error 1, comm rank 0

[1-11] terminated

---- error analysis -----

[0] on LAPTOP-UFVPVEMV
SU2_CFD aborted the job. abort code 1

---- error analysis -----
