
-------------------------------------------------------------------------
|    ___ _   _ ___                                                      |
|   / __| | | |_  )   Release 8.0.1 "Harrier"                           |
|   \__ \ |_| |/ /                                                      |
|   |___/\___//___|   Suite (Computational Fluid Dynamics Code)         |
|                                                                       |
-------------------------------------------------------------------------
| SU2 Project Website: https://su2code.github.io                        |
|                                                                       |
| The SU2 Project is maintained by the SU2 Foundation                   |
| (http://su2foundation.org)                                            |
-------------------------------------------------------------------------
| Copyright 2012-2024, SU2 Contributors                                 |
|                                                                       |
| SU2 is free software; you can redistribute it and/or                  |
| modify it under the terms of the GNU Lesser General Public            |
| License as published by the Free Software Foundation; either          |
| version 2.1 of the License, or (at your option) any later version.    |
|                                                                       |
| SU2 is distributed in the hope that it will be useful,                |
| but WITHOUT ANY WARRANTY; without even the implied warranty of        |
| MERCHANTABILITY or FITNESS FOR A PARTICULAR PURPOSE. See the GNU      |
| Lesser General Public License for more details.                       |
|                                                                       |
| You should have received a copy of the GNU Lesser General Public      |
| License along with SU2. If not, see <http://www.gnu.org/licenses/>.   |
-------------------------------------------------------------------------

Parsing config file for zone 0

----------------- Physical Case Definition ( Zone 0 ) -------------------
Compressible RANS equations.
Turbulence model: Spalart-Allmaras-noft2-BCM
Hybrid RANS/LES: No Hybrid RANS/LES
Mach number: 0.5.
Angle of attack (AoA): -31 deg, and angle of sideslip (AoS): 0 deg.
Reynolds number: 600000. Reference length 1.00071.
No restart solution, use the values at infinity (freestream).
Dimensional simulation.
The reference area will be computed using y(2D) or z(3D) projection.
The semi-span will be computed using the max y(3D) value.
The reference length is 1.00071 m.
Reference origin for moment evaluation is (0, 0, 0).
Surface(s) where the force coefficients are evaluated: blade1.

Surface(s) plotted in the output file: blade1.
Surface(s) to be analyzed in detail: inlet, outlet, blade1.
Input mesh file name: cascade2D_databladeVALIDATION_Blade_18.su2

--------------- Space Numerical Integration ( Zone 0 ) ------------------
Jameson-Schmidt-Turkel scheme (2nd order in space) for the flow inviscid terms.
JST viscous coefficients (2nd & 4th): 0.5, 0.02.
The method includes a grid stretching correction (p = 0.3).
Scalar upwind solver for the turbulence model.
First order integration in space.
Average of gradients with correction (viscous flow terms).
Average of gradients with correction (viscous turbulence terms).
Gradient for upwind reconstruction: inverse-distance weighted Least-Squares.
Gradient for viscous and source terms: inverse-distance weighted Least-Squares.

--------------- Time Numerical Integration  ( Zone 0 ) ------------------
Local time stepping (steady state simulation).
Euler implicit method for the flow equations.
FGMRES is used for solving the linear system.
Using a LU-SGS preconditioning.
Convergence criteria of the linear solver: 0.0001.
Max number of linear iterations: 10.
V Multigrid Cycle, with 3 multigrid levels.
Damping factor for the residual restriction: 0.75.
Damping factor for the correction prolongation: 0.75.
CFL adaptation. Factor down: 0.1, factor up: 1.2,
                lower limit: 0.1, upper limit: 100,
                acceptable linear residual: 0.001.
+-------------------------------------------+
|  MG Level| Presmooth|PostSmooth|CorrectSmo|
+-------------------------------------------+
|         0|         1|         0|         1|
|         1|         2|         2|         2|
|         2|         3|         3|         3|
|         3|         3|         0|         0|
+-------------------------------------------+
Courant-Friedrichs-Lewy number:       12
Euler implicit time integration for the turbulence model.

------------------ Convergence Criteria  ( Zone 0 ) ---------------------
Maximum number of solver subiterations: 7000.
Begin convergence monitoring at iteration 500.
Residual minimum value: 1e-7.
Cauchy series min. value: 1e-10.
Number of Cauchy elements: 100.
Begin windowed time average at iteration 0.

-------------------- Output Information ( Zone 0 ) ----------------------
File writing frequency: 
+------------------------------------+
|                     File| Frequency|
+------------------------------------+
|                  RESTART|        50|
|                 PARAVIEW|        50|
|         SURFACE_PARAVIEW|        50|
|                      CSV|        50|
|              SURFACE_CSV|        50|
+------------------------------------+
Writing the convergence history file every 1 inner iterations.
Writing the screen convergence history every 10 inner iterations.
The tabular file format is CSV (.csv).
Convergence history file name: history_databladeVALIDATION_Blade_18.
Forces breakdown file name: forces_breakdown.dat.
Surface file name: surface_flowdatabladeVALIDATION_Blade_18.
Volume file name: volume_flow_databladeVALIDATION_Blade_18.
Restart file name: restart_flow_databladeVALIDATION_Blade_18.dat.

------------- Config File Boundary Information ( Zone 0 ) ---------------
+-----------------------------------------------------------------------+
|                        Marker Type|                        Marker Name|
+-----------------------------------------------------------------------+
|                  Periodic boundary|               symmetricWallsBOTTOM|
|                                   |                  symmetricWallsTOP|
+-----------------------------------------------------------------------+
|                     Inlet boundary|                              inlet|
+-----------------------------------------------------------------------+
|                    Outlet boundary|                             outlet|
+-----------------------------------------------------------------------+
|                     Heat flux wall|                             blade1|
|                                   |                             blade2|
+-----------------------------------------------------------------------+

-------------------- Output Preprocessing ( Zone 0 ) --------------------
  Info: Ignoring the following screen output fields:
  LINSOL_ITER_TRANS, LINSOL_RESIDUAL_TRANS
Screen output fields: INNER_ITER, CUR_TIME, RMS_DENSITY
  Info: Ignoring the following history output groups:
  RMS_TKE, RMS_DISSIPATION
History output group(s): INNER_ITER, WALL_TIME, RMS_DENSITY, RMS_MOMENTUM-X, RMS_ENERGY, LINSOL, CFL_NUMBER, FLOW_COEFF_SURF, AERO_COEFF_SURF
Convergence field(s): RMS_DENSITY
Warning: No (valid) fields chosen for time convergence monitoring. Time convergence monitoring inactive.
Volume output fields: COORDINATES, SOLUTION, PRIMITIVE, RESIDUAL, TIMESTEP, MESH_QUALITY, VORTEX_IDENTIFICATION

------------------- Geometry Preprocessing ( Zone 0 ) -------------------
Two dimensional problem.
22207 grid points before partitioning.
36454 volume elements before partitioning.
5 surface markers.
32 boundary elements in index 0 (Marker = inlet).
473 boundary elements in index 1 (Marker = symmetricWallsBOTTOM).
473 boundary elements in index 2 (Marker = symmetricWallsTOP).
32 boundary elements in index 3 (Marker = outlet).
278 boundary elements in index 4 (Marker = blade1).
Executing the partitioning functions.
Building the graph adjacency structure.
Calling ParMETIS... graph partitioning complete (855 edge cuts).
Distributing ParMETIS coloring.
Rebalancing vertices.
Rebalancing volume element connectivity.
Rebalancing markers and surface elements.
23322 vertices including ghost points. 
37299 interior elements including halo cells. 
30381 triangles.
6918 quadrilaterals.
Establishing MPI communication patterns.
Setting point connectivity.
Renumbering points (Reverse Cuthill McKee Ordering).
Recomputing point connectivity.
Setting element connectivity.
Checking the numerical grid orientation.
All volume elements are correctly orientend.
There has been a re-orientation of 655 LINE surface elements.
Identifying edges and vertices.
Setting the control volume structure.
Area of the computational grid: 4.04905.
Searching for the closest normal neighbors to the surfaces.
Storing a mapping from global to local point index.
Compute the surface curvature.
Max K: 80.1046. Mean K: 1.0048. Standard deviation K: 6.04716.
Checking for periodicity.
WARNING: Periodicity has been detected. Disabling multigrid. 
Computing mesh quality statistics for the dual control volumes.
+--------------------------------------------------------------+
|           Mesh Quality Metric|        Minimum|        Maximum|
+--------------------------------------------------------------+
|    Orthogonality Angle (deg.)|        29.0114|        89.9997|
|     CV Face Area Aspect Ratio|        1.00012|        1780.12|
|           CV Sub-Volume Ratio|              1|        4.52592|
+--------------------------------------------------------------+
Finding max control volume width.
Communicating number of neighbors.
Reference length = 1.02571 m.
Wetted area = 3.62712 m.
Area projection in the x-plane = 1.2981 m, y-plane = 1.02571 m.
Max. coordinate in the x-direction = 1.01734 m, y-direction = 0.935125 m.
Min. coordinate in the x-direction = -0.0088411 m, y-direction = -0.363117 m.
Matching the periodic boundary points for marker pair 1.
 Matched 948 points with a max distance of: 4.12046e-13.
Computing wall distances.

-------------------- Solver Preprocessing ( Zone 0 ) --------------------
Viscous flow: Computing pressure using the ideal gas law
based on the free-stream temperature and a density computed
from the Reynolds number.
Force coefficients computed using free-stream values.

-- Models:
+------------------------------------------------------------------------------+
|          Viscosity Model|        Conductivity Model|              Fluid Model|
+------------------------------------------------------------------------------+
|               SUTHERLAND|          CONSTANT_PRANDTL|                IDEAL_GAS|
+------------------------------------------------------------------------------+
-- Fluid properties:
+------------------------------------------------------------------------------+
|                  Name|    Dim. value|    Ref. value|      Unit|Non-dim. value|
+------------------------------------------------------------------------------+
|        Ref. Viscosity|     1.716e-05|             1|   N.s/m^2|     1.716e-05|
|      Sutherland Temp.|        273.15|             1|         K|        273.15|
|     Sutherland Const.|         110.4|             1|         K|         110.4|
+------------------------------------------------------------------------------+
|        Prandtl (Lam.)|             -|             -|         -|          0.72|
|       Prandtl (Turb.)|             -|             -|         -|           0.9|
+------------------------------------------------------------------------------+
|          Gas Constant|       287.058|             1|  N.m/kg.K|       287.058|
|      Spec. Heat Ratio|             -|             -|         -|           1.4|
+------------------------------------------------------------------------------+
-- Initial and free-stream conditions:
+------------------------------------------------------------------------------+
|                  Name|    Dim. value|    Ref. value|      Unit|Non-dim. value|
+------------------------------------------------------------------------------+
|       Static Pressure|       5489.94|             1|        Pa|       5489.94|
|               Density|     0.0637495|             1|    kg/m^3|     0.0637495|
|           Temperature|           300|             1|         K|           300|
|          Total Energy|        230364|             1|   m^2/s^2|        230364|
|            Velocity-X|       148.814|             1|       m/s|       148.814|
|            Velocity-Y|      -89.4167|             1|       m/s|      -89.4167|
|    Velocity Magnitude|       173.612|             1|       m/s|       173.612|
+------------------------------------------------------------------------------+
|             Viscosity|   1.84592e-05|             1|   N.s/m^2|   1.84592e-05|
|          Conductivity|             -|             1|   W/m^2.K|             -|
|     Turb. Kin. Energy|       55.3843|             1|   m^2/s^2|       55.3843|
|     Spec. Dissipation|   1.91272e+06|             1|       1/s|   1.91272e+06|
+------------------------------------------------------------------------------+
|           Mach Number|             -|             -|         -|           0.5|
|       Reynolds Number|             -|             -|         -|        600000|
+------------------------------------------------------------------------------+
Initialize Jacobian structure (Navier-Stokes). MG level: 0.
Initialize Jacobian structure (SA model).

------------------- Numerics Preprocessing ( Zone 0 ) -------------------

----------------- Integration Preprocessing ( Zone 0 ) ------------------

------------------- Iteration Preprocessing ( Zone 0 ) ------------------
Euler/Navier-Stokes/RANS fluid iteration.

------------------------------ Begin Solver -----------------------------

Simulation Run using the Single-zone Driver
WARNING: SU2 was not compiled for an AVX-capable architecture. Performance could be better,
         see https://su2code.github.io/docs_v7/Build-SU2-Linux-MacOS/#compiler-optimizations
+--------------------------------------+
|  Inner_Iter|    Cur_Time|    rms[Rho]|
+--------------------------------------+
|           0|  0.0000e+00|   -1.847105|
|          10|  0.0000e+00|   -2.561727|
|          20|  0.0000e+00|   -2.442220|
|          30|  0.0000e+00|   -2.466365|
|          40|  0.0000e+00|   -2.507749|
|          50|  0.0000e+00|   -2.549887|
+-----------------------------------------------------------------------+
|        File Writing Summary       |              Filename             |
+-----------------------------------------------------------------------+
|SU2 binary restart                 |restart_flow_databladeVALIDATION_Blade_18.dat|
|                                   |                     (5516.81 MB/s)|
|Paraview                           |volume_flow_databladeVALIDATION_Blade_18.vtu|
|                                   |                     (515.495 MB/s)|
|Paraview surface                   |surface_flowdatabladeVALIDATION_Blade_18.vtu|
|                                   |                     (26.7752 MB/s)|
|SU2 ASCII restart                  |restart_flow_databladeVALIDATION_Blade_18.csv|
|                                   |                     (18.9148 MB/s)|
|CSV file                           |surface_flowdatabladeVALIDATION_Blade_18.csv|
|                                   |                     (15.7358 MB/s)|
+-----------------------------------------------------------------------+
+--------------------------------------+
|  Inner_Iter|    Cur_Time|    rms[Rho]|
+--------------------------------------+
|          60|  0.0000e+00|   -2.531248|
|          70|  0.0000e+00|   -2.553271|
|          80|  0.0000e+00|   -2.608642|
|          90|  0.0000e+00|   -2.609049|
|         100|  0.0000e+00|   -2.595206|
+-----------------------------------------------------------------------+
|        File Writing Summary       |              Filename             |
+-----------------------------------------------------------------------+
|SU2 binary restart                 |restart_flow_databladeVALIDATION_Blade_18.dat|
|                                   |                     (4667.16 MB/s)|
|Paraview                           |volume_flow_databladeVALIDATION_Blade_18.vtu|
|                                   |                     (476.186 MB/s)|
|Paraview surface                   |surface_flowdatabladeVALIDATION_Blade_18.vtu|
|                                   |                     (37.2635 MB/s)|
|SU2 ASCII restart                  |restart_flow_databladeVALIDATION_Blade_18.csv|
|                                   |                      (18.585 MB/s)|
|CSV file                           |surface_flowdatabladeVALIDATION_Blade_18.csv|
|                                   |                       (16.81 MB/s)|
+-----------------------------------------------------------------------+
+--------------------------------------+
|  Inner_Iter|    Cur_Time|    rms[Rho]|
+--------------------------------------+
|         110|  0.0000e+00|   -2.528843|
|         120|  0.0000e+00|   -2.608043|
|         130|  0.0000e+00|   -2.611392|
|         140|  0.0000e+00|   -2.602744|
|         150|  0.0000e+00|   -2.737340|
+-----------------------------------------------------------------------+
|        File Writing Summary       |              Filename             |
+-----------------------------------------------------------------------+
|SU2 binary restart                 |restart_flow_databladeVALIDATION_Blade_18.dat|
|                                   |                     (5835.69 MB/s)|
|Paraview                           |volume_flow_databladeVALIDATION_Blade_18.vtu|
|                                   |                     (511.669 MB/s)|
|Paraview surface                   |surface_flowdatabladeVALIDATION_Blade_18.vtu|
|                                   |                     (44.9267 MB/s)|
|SU2 ASCII restart                  |restart_flow_databladeVALIDATION_Blade_18.csv|
|                                   |                     (19.1205 MB/s)|
|CSV file                           |surface_flowdatabladeVALIDATION_Blade_18.csv|
|                                   |                     (16.7776 MB/s)|
+-----------------------------------------------------------------------+
+--------------------------------------+
|  Inner_Iter|    Cur_Time|    rms[Rho]|
+--------------------------------------+
|         160|  0.0000e+00|   -2.730897|
|         170|  0.0000e+00|   -2.657093|
|         180|  0.0000e+00|   -2.612787|
|         190|  0.0000e+00|   -2.652632|
|         200|  0.0000e+00|   -2.678402|
+-----------------------------------------------------------------------+
|        File Writing Summary       |              Filename             |
+-----------------------------------------------------------------------+
|SU2 binary restart                 |restart_flow_databladeVALIDATION_Blade_18.dat|
|                                   |                      (3101.1 MB/s)|
|Paraview                           |volume_flow_databladeVALIDATION_Blade_18.vtu|
|                                   |                     (252.113 MB/s)|
|Paraview surface                   |surface_flowdatabladeVALIDATION_Blade_18.vtu|
|                                   |                     (39.0314 MB/s)|
|SU2 ASCII restart                  |restart_flow_databladeVALIDATION_Blade_18.csv|
|                                   |                      (19.035 MB/s)|
|CSV file                           |surface_flowdatabladeVALIDATION_Blade_18.csv|
|                                   |                     (10.4018 MB/s)|
+-----------------------------------------------------------------------+
+--------------------------------------+
|  Inner_Iter|    Cur_Time|    rms[Rho]|
+--------------------------------------+
|         210|  0.0000e+00|   -2.678911|
|         220|  0.0000e+00|   -2.715540|
|         230|  0.0000e+00|   -2.777990|
|         240|  0.0000e+00|   -2.787201|
|         250|  0.0000e+00|   -2.729081|
+-----------------------------------------------------------------------+
|        File Writing Summary       |              Filename             |
+-----------------------------------------------------------------------+
|SU2 binary restart                 |restart_flow_databladeVALIDATION_Blade_18.dat|
|                                   |                     (5956.37 MB/s)|
|Paraview                           |volume_flow_databladeVALIDATION_Blade_18.vtu|
|                                   |                     (440.311 MB/s)|
|Paraview surface                   |surface_flowdatabladeVALIDATION_Blade_18.vtu|
|                                   |                     (27.2981 MB/s)|
|SU2 ASCII restart                  |restart_flow_databladeVALIDATION_Blade_18.csv|
|                                   |                     (19.3658 MB/s)|
|CSV file                           |surface_flowdatabladeVALIDATION_Blade_18.csv|
|                                   |                     (14.3922 MB/s)|
+-----------------------------------------------------------------------+
+--------------------------------------+
|  Inner_Iter|    Cur_Time|    rms[Rho]|
+--------------------------------------+
|         260|  0.0000e+00|   -2.685724|
|         270|  0.0000e+00|   -2.733281|
|         280|  0.0000e+00|   -2.721778|
|         290|  0.0000e+00|   -2.714538|
|         300|  0.0000e+00|   -2.724499|
+-----------------------------------------------------------------------+
|        File Writing Summary       |              Filename             |
+-----------------------------------------------------------------------+
|SU2 binary restart                 |restart_flow_databladeVALIDATION_Blade_18.dat|
|                                   |                     (5140.82 MB/s)|
|Paraview                           |volume_flow_databladeVALIDATION_Blade_18.vtu|
|                                   |                     (296.597 MB/s)|
|Paraview surface                   |surface_flowdatabladeVALIDATION_Blade_18.vtu|
|                                   |                     (18.7349 MB/s)|
|SU2 ASCII restart                  |restart_flow_databladeVALIDATION_Blade_18.csv|
|                                   |                     (20.5384 MB/s)|
|CSV file                           |surface_flowdatabladeVALIDATION_Blade_18.csv|
|                                   |                      (14.961 MB/s)|
+-----------------------------------------------------------------------+
+--------------------------------------+
|  Inner_Iter|    Cur_Time|    rms[Rho]|
+--------------------------------------+
|         310|  0.0000e+00|   -2.747414|
|         320|  0.0000e+00|   -2.702479|
|         330|  0.0000e+00|   -2.730763|
|         340|  0.0000e+00|   -2.840496|
|         350|  0.0000e+00|   -2.823770|
+-----------------------------------------------------------------------+
|        File Writing Summary       |              Filename             |
+-----------------------------------------------------------------------+
|SU2 binary restart                 |restart_flow_databladeVALIDATION_Blade_18.dat|
|                                   |                     (5014.04 MB/s)|
|Paraview                           |volume_flow_databladeVALIDATION_Blade_18.vtu|
|                                   |                     (488.322 MB/s)|
|Paraview surface                   |surface_flowdatabladeVALIDATION_Blade_18.vtu|
|                                   |                     (29.3952 MB/s)|
|SU2 ASCII restart                  |restart_flow_databladeVALIDATION_Blade_18.csv|
|                                   |                     (20.2736 MB/s)|
|CSV file                           |surface_flowdatabladeVALIDATION_Blade_18.csv|
|                                   |                     (14.3107 MB/s)|
+-----------------------------------------------------------------------+
+--------------------------------------+
|  Inner_Iter|    Cur_Time|    rms[Rho]|
+--------------------------------------+
|         360|  0.0000e+00|   -2.835454|
|         370|  0.0000e+00|   -2.857760|
|         380|  0.0000e+00|   -2.900687|
|         390|  0.0000e+00|   -2.854986|
|         400|  0.0000e+00|   -2.880575|
+-----------------------------------------------------------------------+
|        File Writing Summary       |              Filename             |
+-----------------------------------------------------------------------+
|SU2 binary restart                 |restart_flow_databladeVALIDATION_Blade_18.dat|
|                                   |                     (5014.47 MB/s)|
|Paraview                           |volume_flow_databladeVALIDATION_Blade_18.vtu|
|                                   |                     (485.652 MB/s)|
|Paraview surface                   |surface_flowdatabladeVALIDATION_Blade_18.vtu|
|                                   |                     (38.6156 MB/s)|
|SU2 ASCII restart                  |restart_flow_databladeVALIDATION_Blade_18.csv|
|                                   |                     (21.0431 MB/s)|
|CSV file                           |surface_flowdatabladeVALIDATION_Blade_18.csv|
|                                   |                     (14.4305 MB/s)|
+-----------------------------------------------------------------------+
+--------------------------------------+
|  Inner_Iter|    Cur_Time|    rms[Rho]|
+--------------------------------------+
|         410|  0.0000e+00|   -2.929644|
|         420|  0.0000e+00|   -2.923829|
|         430|  0.0000e+00|   -2.885762|
|         440|  0.0000e+00|   -2.940282|
|         450|  0.0000e+00|   -3.013227|
+-----------------------------------------------------------------------+
|        File Writing Summary       |              Filename             |
+-----------------------------------------------------------------------+
|SU2 binary restart                 |restart_flow_databladeVALIDATION_Blade_18.dat|
|                                   |                     (5201.34 MB/s)|
|Paraview                           |volume_flow_databladeVALIDATION_Blade_18.vtu|
|                                   |                     (492.514 MB/s)|
|Paraview surface                   |surface_flowdatabladeVALIDATION_Blade_18.vtu|
|                                   |                     (42.3781 MB/s)|
|SU2 ASCII restart                  |restart_flow_databladeVALIDATION_Blade_18.csv|
|                                   |                     (20.7548 MB/s)|
|CSV file                           |surface_flowdatabladeVALIDATION_Blade_18.csv|
|                                   |                     (15.5996 MB/s)|
+-----------------------------------------------------------------------+
+--------------------------------------+
|  Inner_Iter|    Cur_Time|    rms[Rho]|
+--------------------------------------+
|         460|  0.0000e+00|   -2.966174|
|         470|  0.0000e+00|   -2.833098|
|         480|  0.0000e+00|   -2.882528|
|         490|  0.0000e+00|   -2.926863|
|         500|  0.0000e+00|   -2.878034|
+-----------------------------------------------------------------------+
|        File Writing Summary       |              Filename             |
+-----------------------------------------------------------------------+
|SU2 binary restart                 |restart_flow_databladeVALIDATION_Blade_18.dat|
|                                   |                     (5013.19 MB/s)|
|Paraview                           |volume_flow_databladeVALIDATION_Blade_18.vtu|
|                                   |                     (494.225 MB/s)|
|Paraview surface                   |surface_flowdatabladeVALIDATION_Blade_18.vtu|
|                                   |                     (41.6259 MB/s)|
|SU2 ASCII restart                  |restart_flow_databladeVALIDATION_Blade_18.csv|
|                                   |                     (20.4694 MB/s)|
|CSV file                           |surface_flowdatabladeVALIDATION_Blade_18.csv|
|                                   |                     (15.2502 MB/s)|
+-----------------------------------------------------------------------+
+--------------------------------------+
|  Inner_Iter|    Cur_Time|    rms[Rho]|
+--------------------------------------+
|         510|  0.0000e+00|   -2.800972|
|         520|  0.0000e+00|   -2.860869|
|         530|  0.0000e+00|   -2.841778|
|         540|  0.0000e+00|   -2.707980|
|         550|  0.0000e+00|   -2.754508|
+-----------------------------------------------------------------------+
|        File Writing Summary       |              Filename             |
+-----------------------------------------------------------------------+
|SU2 binary restart                 |restart_flow_databladeVALIDATION_Blade_18.dat|
|                                   |                     (5853.13 MB/s)|
|Paraview                           |volume_flow_databladeVALIDATION_Blade_18.vtu|
|                                   |                      (491.71 MB/s)|
|Paraview surface                   |surface_flowdatabladeVALIDATION_Blade_18.vtu|
|                                   |                     (36.7414 MB/s)|
|SU2 ASCII restart                  |restart_flow_databladeVALIDATION_Blade_18.csv|
|                                   |                     (20.7743 MB/s)|
|CSV file                           |surface_flowdatabladeVALIDATION_Blade_18.csv|
|                                   |                     (16.1824 MB/s)|
+-----------------------------------------------------------------------+
+--------------------------------------+
|  Inner_Iter|    Cur_Time|    rms[Rho]|
+--------------------------------------+
|         560|  0.0000e+00|   -2.770262|
|         570|  0.0000e+00|   -2.827185|
|         580|  0.0000e+00|   -2.626520|
|         590|  0.0000e+00|   -2.583727|
|         600|  0.0000e+00|   -2.443048|
+-----------------------------------------------------------------------+
|        File Writing Summary       |              Filename             |
+-----------------------------------------------------------------------+
|SU2 binary restart                 |restart_flow_databladeVALIDATION_Blade_18.dat|
|                                   |                     (1897.61 MB/s)|
|Paraview                           |volume_flow_databladeVALIDATION_Blade_18.vtu|
|                                   |                     (267.646 MB/s)|
|Paraview surface                   |surface_flowdatabladeVALIDATION_Blade_18.vtu|
|                                   |                       (35.82 MB/s)|
|SU2 ASCII restart                  |restart_flow_databladeVALIDATION_Blade_18.csv|
|                                   |                     (18.6377 MB/s)|
|CSV file                           |surface_flowdatabladeVALIDATION_Blade_18.csv|
|                                   |                     (8.72968 MB/s)|
+-----------------------------------------------------------------------+
+--------------------------------------+
|  Inner_Iter|    Cur_Time|    rms[Rho]|
+--------------------------------------+
|         610|  0.0000e+00|   -2.546936|
|         620|  0.0000e+00|   -2.323920|
|         630|  0.0000e+00|   -2.259555|
|         640|  0.0000e+00|   -2.170666|
|         650|  0.0000e+00|   -2.070088|
+-----------------------------------------------------------------------+
|        File Writing Summary       |              Filename             |
+-----------------------------------------------------------------------+
|SU2 binary restart                 |restart_flow_databladeVALIDATION_Blade_18.dat|
|                                   |                     (5143.07 MB/s)|
|Paraview                           |volume_flow_databladeVALIDATION_Blade_18.vtu|
|                                   |                     (453.683 MB/s)|
|Paraview surface                   |surface_flowdatabladeVALIDATION_Blade_18.vtu|
|                                   |                     (17.8664 MB/s)|
|SU2 ASCII restart                  |restart_flow_databladeVALIDATION_Blade_18.csv|
|                                   |                     (18.7571 MB/s)|
|CSV file                           |surface_flowdatabladeVALIDATION_Blade_18.csv|
|                                   |                     (9.59256 MB/s)|
+-----------------------------------------------------------------------+
+--------------------------------------+
|  Inner_Iter|    Cur_Time|    rms[Rho]|
+--------------------------------------+
|         660|  0.0000e+00|   -2.052228|
|         670|  0.0000e+00|   -2.045960|
|         680|  0.0000e+00|   -2.036958|
|         690|  0.0000e+00|   -2.027575|
|         700|  0.0000e+00|   -1.999708|
+-----------------------------------------------------------------------+
|        File Writing Summary       |              Filename             |
+-----------------------------------------------------------------------+
|SU2 binary restart                 |restart_flow_databladeVALIDATION_Blade_18.dat|
|                                   |                     (5196.74 MB/s)|
|Paraview                           |volume_flow_databladeVALIDATION_Blade_18.vtu|
|                                   |                      (471.79 MB/s)|
|Paraview surface                   |surface_flowdatabladeVALIDATION_Blade_18.vtu|
|                                   |                     (22.1027 MB/s)|
|SU2 ASCII restart                  |restart_flow_databladeVALIDATION_Blade_18.csv|
|                                   |                     (18.6245 MB/s)|
|CSV file                           |surface_flowdatabladeVALIDATION_Blade_18.csv|
|                                   |                     (15.9394 MB/s)|
+-----------------------------------------------------------------------+
+--------------------------------------+
|  Inner_Iter|    Cur_Time|    rms[Rho]|
+--------------------------------------+
|         710|  0.0000e+00|   -1.918596|
|         720|  0.0000e+00|   -1.840095|
|         730|  0.0000e+00|   -1.793028|
|         740|  0.0000e+00|   -1.813962|
|         750|  0.0000e+00|   -1.626811|
+-----------------------------------------------------------------------+
|        File Writing Summary       |              Filename             |
+-----------------------------------------------------------------------+
|SU2 binary restart                 |restart_flow_databladeVALIDATION_Blade_18.dat|
|                                   |                     (5614.33 MB/s)|
|Paraview                           |volume_flow_databladeVALIDATION_Blade_18.vtu|
|                                   |                     (437.889 MB/s)|
|Paraview surface                   |surface_flowdatabladeVALIDATION_Blade_18.vtu|
|                                   |                     (29.9802 MB/s)|
|SU2 ASCII restart                  |restart_flow_databladeVALIDATION_Blade_18.csv|
|                                   |                     (18.9885 MB/s)|
|CSV file                           |surface_flowdatabladeVALIDATION_Blade_18.csv|
|                                   |                     (14.2956 MB/s)|
+-----------------------------------------------------------------------+
+--------------------------------------+
|  Inner_Iter|    Cur_Time|    rms[Rho]|
+--------------------------------------+
|         760|  0.0000e+00|   -1.607206|
|         770|  0.0000e+00|   -1.630855|
|         780|  0.0000e+00|   -1.537438|
|         790|  0.0000e+00|   -1.509080|
|         800|  0.0000e+00|   -1.428922|
+-----------------------------------------------------------------------+
|        File Writing Summary       |              Filename             |
+-----------------------------------------------------------------------+
|SU2 binary restart                 |restart_flow_databladeVALIDATION_Blade_18.dat|
|                                   |                     (7240.86 MB/s)|
|Paraview                           |volume_flow_databladeVALIDATION_Blade_18.vtu|
|                                   |                     (431.292 MB/s)|
|Paraview surface                   |surface_flowdatabladeVALIDATION_Blade_18.vtu|
|                                   |                     (37.4506 MB/s)|
|SU2 ASCII restart                  |restart_flow_databladeVALIDATION_Blade_18.csv|
|                                   |                     (18.5511 MB/s)|
|CSV file                           |surface_flowdatabladeVALIDATION_Blade_18.csv|
|                                   |                     (9.17264 MB/s)|
+-----------------------------------------------------------------------+
+--------------------------------------+
|  Inner_Iter|    Cur_Time|    rms[Rho]|
+--------------------------------------+
|         810|  0.0000e+00|   -1.335878|
|         820|  0.0000e+00|   -0.872241|
|         830|  0.0000e+00|   -1.100267|


Error in "void CSolver::SetResidual_RMS(const CGeometry*, const CConfig*)": 
-------------------------------------------------------------------------
SU2 has diverged (NaN detected).
------------------------------ Error Exit -------------------------------



job aborted:
[ranks] message

[0] application aborted
aborting MPI_COMM_WORLD (comm=0x44000000), error 1, comm rank 0

[1-11] terminated

---- error analysis -----

[0] on LAPTOP-UFVPVEMV
SU2_CFD aborted the job. abort code 1

---- error analysis -----
