
-------------------------------------------------------------------------
|    ___ _   _ ___                                                      |
|   / __| | | |_  )   Release 8.0.1 "Harrier"                           |
|   \__ \ |_| |/ /                                                      |
|   |___/\___//___|   Suite (Computational Fluid Dynamics Code)         |
|                                                                       |
-------------------------------------------------------------------------
| SU2 Project Website: https://su2code.github.io                        |
|                                                                       |
| The SU2 Project is maintained by the SU2 Foundation                   |
| (http://su2foundation.org)                                            |
-------------------------------------------------------------------------
| Copyright 2012-2024, SU2 Contributors                                 |
|                                                                       |
| SU2 is free software; you can redistribute it and/or                  |
| modify it under the terms of the GNU Lesser General Public            |
| License as published by the Free Software Foundation; either          |
| version 2.1 of the License, or (at your option) any later version.    |
|                                                                       |
| SU2 is distributed in the hope that it will be useful,                |
| but WITHOUT ANY WARRANTY; without even the implied warranty of        |
| MERCHANTABILITY or FITNESS FOR A PARTICULAR PURPOSE. See the GNU      |
| Lesser General Public License for more details.                       |
|                                                                       |
| You should have received a copy of the GNU Lesser General Public      |
| License along with SU2. If not, see <http://www.gnu.org/licenses/>.   |
-------------------------------------------------------------------------

Parsing config file for zone 0

----------------- Physical Case Definition ( Zone 0 ) -------------------
Compressible RANS equations.
Turbulence model: Spalart-Allmaras-noft2-BCM
Hybrid RANS/LES: No Hybrid RANS/LES
Mach number: 0.5.
Angle of attack (AoA): -31 deg, and angle of sideslip (AoS): 0 deg.
Reynolds number: 600000. Reference length 1.00071.
No restart solution, use the values at infinity (freestream).
Dimensional simulation.
The reference area will be computed using y(2D) or z(3D) projection.
The semi-span will be computed using the max y(3D) value.
The reference length is 1.00071 m.
Reference origin for moment evaluation is (0, 0, 0).
Surface(s) where the force coefficients are evaluated: blade1.

Surface(s) plotted in the output file: blade1.
Surface(s) to be analyzed in detail: inlet, outlet, blade1.
Input mesh file name: cascade2D_databladeVALIDATION_Blade_18.su2

--------------- Space Numerical Integration ( Zone 0 ) ------------------
Jameson-Schmidt-Turkel scheme (2nd order in space) for the flow inviscid terms.
JST viscous coefficients (2nd & 4th): 0.5, 0.02.
The method includes a grid stretching correction (p = 0.3).
Scalar upwind solver for the turbulence model.
First order integration in space.
Average of gradients with correction (viscous flow terms).
Average of gradients with correction (viscous turbulence terms).
Gradient for upwind reconstruction: inverse-distance weighted Least-Squares.
Gradient for viscous and source terms: inverse-distance weighted Least-Squares.

--------------- Time Numerical Integration  ( Zone 0 ) ------------------
Local time stepping (steady state simulation).
Euler implicit method for the flow equations.
FGMRES is used for solving the linear system.
Using a LU-SGS preconditioning.
Convergence criteria of the linear solver: 0.0001.
Max number of linear iterations: 10.
V Multigrid Cycle, with 3 multigrid levels.
Damping factor for the residual restriction: 0.75.
Damping factor for the correction prolongation: 0.75.
CFL adaptation. Factor down: 0.1, factor up: 1.2,
                lower limit: 0.1, upper limit: 100,
                acceptable linear residual: 0.001.
+-------------------------------------------+
|  MG Level| Presmooth|PostSmooth|CorrectSmo|
+-------------------------------------------+
|         0|         1|         0|         1|
|         1|         2|         2|         2|
|         2|         3|         3|         3|
|         3|         3|         0|         0|
+-------------------------------------------+
Courant-Friedrichs-Lewy number:       12
Euler implicit time integration for the turbulence model.

------------------ Convergence Criteria  ( Zone 0 ) ---------------------
Maximum number of solver subiterations: 7000.
Begin convergence monitoring at iteration 500.
Residual minimum value: 1e-7.
Cauchy series min. value: 1e-10.
Number of Cauchy elements: 100.
Begin windowed time average at iteration 0.

-------------------- Output Information ( Zone 0 ) ----------------------
File writing frequency: 
+------------------------------------+
|                     File| Frequency|
+------------------------------------+
|                  RESTART|        50|
|                 PARAVIEW|        50|
|         SURFACE_PARAVIEW|        50|
|                      CSV|        50|
|              SURFACE_CSV|        50|
+------------------------------------+
Writing the convergence history file every 1 inner iterations.
Writing the screen convergence history every 10 inner iterations.
The tabular file format is CSV (.csv).
Convergence history file name: history_databladeVALIDATION_Blade_18.
Forces breakdown file name: forces_breakdown.dat.
Surface file name: surface_flowdatabladeVALIDATION_Blade_18.
Volume file name: volume_flow_databladeVALIDATION_Blade_18.
Restart file name: restart_flow_databladeVALIDATION_Blade_18.dat.

------------- Config File Boundary Information ( Zone 0 ) ---------------
+-----------------------------------------------------------------------+
|                        Marker Type|                        Marker Name|
+-----------------------------------------------------------------------+
|                  Periodic boundary|               symmetricWallsBOTTOM|
|                                   |                  symmetricWallsTOP|
+-----------------------------------------------------------------------+
|                     Inlet boundary|                              inlet|
+-----------------------------------------------------------------------+
|                    Outlet boundary|                             outlet|
+-----------------------------------------------------------------------+
|                     Heat flux wall|                             blade1|
|                                   |                             blade2|
+-----------------------------------------------------------------------+

-------------------- Output Preprocessing ( Zone 0 ) --------------------
  Info: Ignoring the following screen output fields:
  LINSOL_ITER_TRANS, LINSOL_RESIDUAL_TRANS
Screen output fields: INNER_ITER, CUR_TIME, RMS_DENSITY
  Info: Ignoring the following history output groups:
  RMS_TKE, RMS_DISSIPATION
History output group(s): INNER_ITER, WALL_TIME, RMS_DENSITY, RMS_MOMENTUM-X, RMS_ENERGY, LINSOL, CFL_NUMBER, FLOW_COEFF_SURF, AERO_COEFF_SURF
Convergence field(s): RMS_DENSITY
Warning: No (valid) fields chosen for time convergence monitoring. Time convergence monitoring inactive.
Volume output fields: COORDINATES, SOLUTION, PRIMITIVE, RESIDUAL, TIMESTEP, MESH_QUALITY, VORTEX_IDENTIFICATION

------------------- Geometry Preprocessing ( Zone 0 ) -------------------
Two dimensional problem.
19166 grid points before partitioning.
32472 volume elements before partitioning.
5 surface markers.
32 boundary elements in index 0 (Marker = inlet).
473 boundary elements in index 1 (Marker = symmetricWallsBOTTOM).
473 boundary elements in index 2 (Marker = symmetricWallsTOP).
32 boundary elements in index 3 (Marker = outlet).
194 boundary elements in index 4 (Marker = blade1).
Executing the partitioning functions.
Building the graph adjacency structure.
Calling ParMETIS... graph partitioning complete (837 edge cuts).
Distributing ParMETIS coloring.
Rebalancing vertices.
Rebalancing volume element connectivity.
Rebalancing markers and surface elements.
20208 vertices including ghost points. 
33299 interior elements including halo cells. 
28452 triangles.
4847 quadrilaterals.
Establishing MPI communication patterns.
Setting point connectivity.
Renumbering points (Reverse Cuthill McKee Ordering).
Recomputing point connectivity.
Setting element connectivity.
Checking the numerical grid orientation.
All volume elements are correctly orientend.
There has been a re-orientation of 612 LINE surface elements.
Identifying edges and vertices.
Setting the control volume structure.
Area of the computational grid: 4.06263.
Searching for the closest normal neighbors to the surfaces.
Storing a mapping from global to local point index.
Compute the surface curvature.
Max K: 78.8064. Mean K: 0.729967. Standard deviation K: 5.07316.
Checking for periodicity.
WARNING: Periodicity has been detected. Disabling multigrid. 
Computing mesh quality statistics for the dual control volumes.
+--------------------------------------------------------------+
|           Mesh Quality Metric|        Minimum|        Maximum|
+--------------------------------------------------------------+
|    Orthogonality Angle (deg.)|        29.0114|        89.9996|
|     CV Face Area Aspect Ratio|         1.0002|        2540.18|
|           CV Sub-Volume Ratio|              1|        5.39812|
+--------------------------------------------------------------+
Finding max control volume width.
Communicating number of neighbors.
Reference length = 1.02542 m.
Wetted area = 3.62588 m.
Area projection in the x-plane = 1.29776 m, y-plane = 1.02542 m.
Max. coordinate in the x-direction = 1.01729 m, y-direction = 0.935168 m.
Min. coordinate in the x-direction = -0.0088411 m, y-direction = -0.363026 m.
Matching the periodic boundary points for marker pair 1.
 Matched 948 points with a max distance of: 4.12046e-13.
Computing wall distances.

-------------------- Solver Preprocessing ( Zone 0 ) --------------------
Viscous flow: Computing pressure using the ideal gas law
based on the free-stream temperature and a density computed
from the Reynolds number.
Force coefficients computed using free-stream values.

-- Models:
+------------------------------------------------------------------------------+
|          Viscosity Model|        Conductivity Model|              Fluid Model|
+------------------------------------------------------------------------------+
|               SUTHERLAND|          CONSTANT_PRANDTL|                IDEAL_GAS|
+------------------------------------------------------------------------------+
-- Fluid properties:
+------------------------------------------------------------------------------+
|                  Name|    Dim. value|    Ref. value|      Unit|Non-dim. value|
+------------------------------------------------------------------------------+
|        Ref. Viscosity|     1.716e-05|             1|   N.s/m^2|     1.716e-05|
|      Sutherland Temp.|        273.15|             1|         K|        273.15|
|     Sutherland Const.|         110.4|             1|         K|         110.4|
+------------------------------------------------------------------------------+
|        Prandtl (Lam.)|             -|             -|         -|          0.72|
|       Prandtl (Turb.)|             -|             -|         -|           0.9|
+------------------------------------------------------------------------------+
|          Gas Constant|       287.058|             1|  N.m/kg.K|       287.058|
|      Spec. Heat Ratio|             -|             -|         -|           1.4|
+------------------------------------------------------------------------------+
-- Initial and free-stream conditions:
+------------------------------------------------------------------------------+
|                  Name|    Dim. value|    Ref. value|      Unit|Non-dim. value|
+------------------------------------------------------------------------------+
|       Static Pressure|       5489.94|             1|        Pa|       5489.94|
|               Density|     0.0637495|             1|    kg/m^3|     0.0637495|
|           Temperature|           300|             1|         K|           300|
|          Total Energy|        230364|             1|   m^2/s^2|        230364|
|            Velocity-X|       148.814|             1|       m/s|       148.814|
|            Velocity-Y|      -89.4167|             1|       m/s|      -89.4167|
|    Velocity Magnitude|       173.612|             1|       m/s|       173.612|
+------------------------------------------------------------------------------+
|             Viscosity|   1.84592e-05|             1|   N.s/m^2|   1.84592e-05|
|          Conductivity|             -|             1|   W/m^2.K|             -|
|     Turb. Kin. Energy|       55.3843|             1|   m^2/s^2|       55.3843|
|     Spec. Dissipation|   1.91272e+06|             1|       1/s|   1.91272e+06|
+------------------------------------------------------------------------------+
|           Mach Number|             -|             -|         -|           0.5|
|       Reynolds Number|             -|             -|         -|        600000|
+------------------------------------------------------------------------------+
Initialize Jacobian structure (Navier-Stokes). MG level: 0.
Initialize Jacobian structure (SA model).

------------------- Numerics Preprocessing ( Zone 0 ) -------------------

----------------- Integration Preprocessing ( Zone 0 ) ------------------

------------------- Iteration Preprocessing ( Zone 0 ) ------------------
Euler/Navier-Stokes/RANS fluid iteration.

------------------------------ Begin Solver -----------------------------

Simulation Run using the Single-zone Driver
WARNING: SU2 was not compiled for an AVX-capable architecture. Performance could be better,
         see https://su2code.github.io/docs_v7/Build-SU2-Linux-MacOS/#compiler-optimizations
+--------------------------------------+
|  Inner_Iter|    Cur_Time|    rms[Rho]|
+--------------------------------------+
|           0|  0.0000e+00|   -1.738074|
|          10|  0.0000e+00|   -2.477514|
|          20|  0.0000e+00|   -2.475171|
|          30|  0.0000e+00|   -2.378830|
|          40|  0.0000e+00|   -2.406477|
|          50|  0.0000e+00|   -2.477857|
+-----------------------------------------------------------------------+
|        File Writing Summary       |              Filename             |
+-----------------------------------------------------------------------+
|SU2 binary restart                 |restart_flow_databladeVALIDATION_Blade_18.dat|
|                                   |                     (2439.94 MB/s)|
|Paraview                           |volume_flow_databladeVALIDATION_Blade_18.vtu|
|                                   |                     (462.229 MB/s)|
|Paraview surface                   |surface_flowdatabladeVALIDATION_Blade_18.vtu|
|                                   |                     (33.6552 MB/s)|
|SU2 ASCII restart                  |restart_flow_databladeVALIDATION_Blade_18.csv|
|                                   |                     (21.4819 MB/s)|
|CSV file                           |surface_flowdatabladeVALIDATION_Blade_18.csv|
|                                   |                     (14.9617 MB/s)|
+-----------------------------------------------------------------------+
+--------------------------------------+
|  Inner_Iter|    Cur_Time|    rms[Rho]|
+--------------------------------------+
|          60|  0.0000e+00|   -2.477947|
|          70|  0.0000e+00|   -2.463228|
|          80|  0.0000e+00|   -2.532774|
|          90|  0.0000e+00|   -2.558420|
|         100|  0.0000e+00|   -2.551425|
+-----------------------------------------------------------------------+
|        File Writing Summary       |              Filename             |
+-----------------------------------------------------------------------+
|SU2 binary restart                 |restart_flow_databladeVALIDATION_Blade_18.dat|
|                                   |                     (6544.29 MB/s)|
|Paraview                           |volume_flow_databladeVALIDATION_Blade_18.vtu|
|                                   |                     (477.673 MB/s)|
|Paraview surface                   |surface_flowdatabladeVALIDATION_Blade_18.vtu|
|                                   |                      (46.286 MB/s)|
|SU2 ASCII restart                  |restart_flow_databladeVALIDATION_Blade_18.csv|
|                                   |                     (21.0791 MB/s)|
|CSV file                           |surface_flowdatabladeVALIDATION_Blade_18.csv|
|                                   |                     (15.1968 MB/s)|
+-----------------------------------------------------------------------+
+--------------------------------------+
|  Inner_Iter|    Cur_Time|    rms[Rho]|
+--------------------------------------+
|         110|  0.0000e+00|   -2.508736|
|         120|  0.0000e+00|   -2.543536|
|         130|  0.0000e+00|   -2.560017|
|         140|  0.0000e+00|   -2.529047|
|         150|  0.0000e+00|   -2.637658|
+-----------------------------------------------------------------------+
|        File Writing Summary       |              Filename             |
+-----------------------------------------------------------------------+
|SU2 binary restart                 |restart_flow_databladeVALIDATION_Blade_18.dat|
|                                   |                     (5372.94 MB/s)|
|Paraview                           |volume_flow_databladeVALIDATION_Blade_18.vtu|
|                                   |                     (529.312 MB/s)|
|Paraview surface                   |surface_flowdatabladeVALIDATION_Blade_18.vtu|
|                                   |                     (36.8184 MB/s)|
|SU2 ASCII restart                  |restart_flow_databladeVALIDATION_Blade_18.csv|
|                                   |                     (21.8699 MB/s)|
|CSV file                           |surface_flowdatabladeVALIDATION_Blade_18.csv|
|                                   |                      (14.439 MB/s)|
+-----------------------------------------------------------------------+
+--------------------------------------+
|  Inner_Iter|    Cur_Time|    rms[Rho]|
+--------------------------------------+
|         160|  0.0000e+00|   -2.694301|
|         170|  0.0000e+00|   -2.606292|
|         180|  0.0000e+00|   -2.585270|
|         190|  0.0000e+00|   -2.611324|
|         200|  0.0000e+00|   -2.617931|
+-----------------------------------------------------------------------+
|        File Writing Summary       |              Filename             |
+-----------------------------------------------------------------------+
|SU2 binary restart                 |restart_flow_databladeVALIDATION_Blade_18.dat|
|                                   |                     (5420.01 MB/s)|
|Paraview                           |volume_flow_databladeVALIDATION_Blade_18.vtu|
|                                   |                     (469.216 MB/s)|
|Paraview surface                   |surface_flowdatabladeVALIDATION_Blade_18.vtu|
|                                   |                     (32.1412 MB/s)|
|SU2 ASCII restart                  |restart_flow_databladeVALIDATION_Blade_18.csv|
|                                   |                      (21.925 MB/s)|
|CSV file                           |surface_flowdatabladeVALIDATION_Blade_18.csv|
|                                   |                     (14.7762 MB/s)|
+-----------------------------------------------------------------------+
+--------------------------------------+
|  Inner_Iter|    Cur_Time|    rms[Rho]|
+--------------------------------------+
|         210|  0.0000e+00|   -2.628513|
|         220|  0.0000e+00|   -2.665140|
|         230|  0.0000e+00|   -2.707011|
|         240|  0.0000e+00|   -2.717088|
|         250|  0.0000e+00|   -2.720671|
+-----------------------------------------------------------------------+
|        File Writing Summary       |              Filename             |
+-----------------------------------------------------------------------+
|SU2 binary restart                 |restart_flow_databladeVALIDATION_Blade_18.dat|
|                                   |                     (3973.94 MB/s)|
|Paraview                           |volume_flow_databladeVALIDATION_Blade_18.vtu|
|                                   |                     (504.743 MB/s)|
|Paraview surface                   |surface_flowdatabladeVALIDATION_Blade_18.vtu|
|                                   |                     (35.9463 MB/s)|
|SU2 ASCII restart                  |restart_flow_databladeVALIDATION_Blade_18.csv|
|                                   |                     (21.9975 MB/s)|
|CSV file                           |surface_flowdatabladeVALIDATION_Blade_18.csv|
|                                   |                     (14.3856 MB/s)|
+-----------------------------------------------------------------------+
+--------------------------------------+
|  Inner_Iter|    Cur_Time|    rms[Rho]|
+--------------------------------------+
|         260|  0.0000e+00|   -2.684036|
|         270|  0.0000e+00|   -2.686482|
|         280|  0.0000e+00|   -2.677164|
|         290|  0.0000e+00|   -2.656880|
|         300|  0.0000e+00|   -2.689441|
+-----------------------------------------------------------------------+
|        File Writing Summary       |              Filename             |
+-----------------------------------------------------------------------+
|SU2 binary restart                 |restart_flow_databladeVALIDATION_Blade_18.dat|
|                                   |                     (3281.24 MB/s)|
|Paraview                           |volume_flow_databladeVALIDATION_Blade_18.vtu|
|                                   |                     (448.949 MB/s)|
|Paraview surface                   |surface_flowdatabladeVALIDATION_Blade_18.vtu|
|                                   |                      (41.722 MB/s)|
|SU2 ASCII restart                  |restart_flow_databladeVALIDATION_Blade_18.csv|
|                                   |                     (21.8797 MB/s)|
|CSV file                           |surface_flowdatabladeVALIDATION_Blade_18.csv|
|                                   |                     (15.2371 MB/s)|
+-----------------------------------------------------------------------+
+--------------------------------------+
|  Inner_Iter|    Cur_Time|    rms[Rho]|
+--------------------------------------+
|         310|  0.0000e+00|   -2.704660|
|         320|  0.0000e+00|   -2.664125|
|         330|  0.0000e+00|   -2.672122|
|         340|  0.0000e+00|   -2.689480|
|         350|  0.0000e+00|   -2.739220|
+-----------------------------------------------------------------------+
|        File Writing Summary       |              Filename             |
+-----------------------------------------------------------------------+
|SU2 binary restart                 |restart_flow_databladeVALIDATION_Blade_18.dat|
|                                   |                     (5693.75 MB/s)|
|Paraview                           |volume_flow_databladeVALIDATION_Blade_18.vtu|
|                                   |                     (508.129 MB/s)|
|Paraview surface                   |surface_flowdatabladeVALIDATION_Blade_18.vtu|
|                                   |                     (31.2628 MB/s)|
|SU2 ASCII restart                  |restart_flow_databladeVALIDATION_Blade_18.csv|
|                                   |                     (21.6227 MB/s)|
|CSV file                           |surface_flowdatabladeVALIDATION_Blade_18.csv|
|                                   |                     (14.2469 MB/s)|
+-----------------------------------------------------------------------+
+--------------------------------------+
|  Inner_Iter|    Cur_Time|    rms[Rho]|
+--------------------------------------+
|         360|  0.0000e+00|   -2.714941|
|         370|  0.0000e+00|   -2.812635|
|         380|  0.0000e+00|   -2.840187|
|         390|  0.0000e+00|   -2.777763|
|         400|  0.0000e+00|   -2.829665|
+-----------------------------------------------------------------------+
|        File Writing Summary       |              Filename             |
+-----------------------------------------------------------------------+
|SU2 binary restart                 |restart_flow_databladeVALIDATION_Blade_18.dat|
|                                   |                     (5156.67 MB/s)|
|Paraview                           |volume_flow_databladeVALIDATION_Blade_18.vtu|
|                                   |                     (528.693 MB/s)|
|Paraview surface                   |surface_flowdatabladeVALIDATION_Blade_18.vtu|
|                                   |                     (43.2408 MB/s)|
|SU2 ASCII restart                  |restart_flow_databladeVALIDATION_Blade_18.csv|
|                                   |                     (21.5295 MB/s)|
|CSV file                           |surface_flowdatabladeVALIDATION_Blade_18.csv|
|                                   |                      (14.773 MB/s)|
+-----------------------------------------------------------------------+
+--------------------------------------+
|  Inner_Iter|    Cur_Time|    rms[Rho]|
+--------------------------------------+
|         410|  0.0000e+00|   -2.858464|
|         420|  0.0000e+00|   -2.859061|
|         430|  0.0000e+00|   -2.838071|
|         440|  0.0000e+00|   -2.845131|
|         450|  0.0000e+00|   -2.871735|
+-----------------------------------------------------------------------+
|        File Writing Summary       |              Filename             |
+-----------------------------------------------------------------------+
|SU2 binary restart                 |restart_flow_databladeVALIDATION_Blade_18.dat|
|                                   |                     (5546.83 MB/s)|
|Paraview                           |volume_flow_databladeVALIDATION_Blade_18.vtu|
|                                   |                     (514.289 MB/s)|
|Paraview surface                   |surface_flowdatabladeVALIDATION_Blade_18.vtu|
|                                   |                      (35.856 MB/s)|
|SU2 ASCII restart                  |restart_flow_databladeVALIDATION_Blade_18.csv|
|                                   |                     (19.0707 MB/s)|
|CSV file                           |surface_flowdatabladeVALIDATION_Blade_18.csv|
|                                   |                     (11.6223 MB/s)|
+-----------------------------------------------------------------------+
+--------------------------------------+
|  Inner_Iter|    Cur_Time|    rms[Rho]|
+--------------------------------------+
|         460|  0.0000e+00|   -2.877255|
|         470|  0.0000e+00|   -2.839312|
|         480|  0.0000e+00|   -2.883335|
|         490|  0.0000e+00|   -2.893219|
|         500|  0.0000e+00|   -2.870778|
+-----------------------------------------------------------------------+
|        File Writing Summary       |              Filename             |
+-----------------------------------------------------------------------+
|SU2 binary restart                 |restart_flow_databladeVALIDATION_Blade_18.dat|
|                                   |                     (4434.56 MB/s)|
|Paraview                           |volume_flow_databladeVALIDATION_Blade_18.vtu|
|                                   |                     (412.718 MB/s)|
|Paraview surface                   |surface_flowdatabladeVALIDATION_Blade_18.vtu|
|                                   |                     (31.2539 MB/s)|
|SU2 ASCII restart                  |restart_flow_databladeVALIDATION_Blade_18.csv|
|                                   |                     (19.7635 MB/s)|
|CSV file                           |surface_flowdatabladeVALIDATION_Blade_18.csv|
|                                   |                     (7.71391 MB/s)|
+-----------------------------------------------------------------------+
+--------------------------------------+
|  Inner_Iter|    Cur_Time|    rms[Rho]|
+--------------------------------------+
|         510|  0.0000e+00|   -2.828473|
|         520|  0.0000e+00|   -2.885859|
|         530|  0.0000e+00|   -2.842599|
|         540|  0.0000e+00|   -2.818012|
|         550|  0.0000e+00|   -2.867881|
+-----------------------------------------------------------------------+
|        File Writing Summary       |              Filename             |
+-----------------------------------------------------------------------+
|SU2 binary restart                 |restart_flow_databladeVALIDATION_Blade_18.dat|
|                                   |                     (5409.61 MB/s)|
|Paraview                           |volume_flow_databladeVALIDATION_Blade_18.vtu|
|                                   |                     (471.503 MB/s)|
|Paraview surface                   |surface_flowdatabladeVALIDATION_Blade_18.vtu|
|                                   |                     (37.2021 MB/s)|
|SU2 ASCII restart                  |restart_flow_databladeVALIDATION_Blade_18.csv|
|                                   |                      (19.412 MB/s)|
|CSV file                           |surface_flowdatabladeVALIDATION_Blade_18.csv|
|                                   |                      (13.209 MB/s)|
+-----------------------------------------------------------------------+
+--------------------------------------+
|  Inner_Iter|    Cur_Time|    rms[Rho]|
+--------------------------------------+
|         560|  0.0000e+00|   -2.886671|
|         570|  0.0000e+00|   -2.809789|
|         580|  0.0000e+00|   -2.819368|
|         590|  0.0000e+00|   -2.921171|
|         600|  0.0000e+00|   -2.748155|
+-----------------------------------------------------------------------+
|        File Writing Summary       |              Filename             |
+-----------------------------------------------------------------------+
|SU2 binary restart                 |restart_flow_databladeVALIDATION_Blade_18.dat|
|                                   |                     (3714.13 MB/s)|
|Paraview                           |volume_flow_databladeVALIDATION_Blade_18.vtu|
|                                   |                     (442.748 MB/s)|
|Paraview surface                   |surface_flowdatabladeVALIDATION_Blade_18.vtu|
|                                   |                     (33.1245 MB/s)|
|SU2 ASCII restart                  |restart_flow_databladeVALIDATION_Blade_18.csv|
|                                   |                     (18.6912 MB/s)|
|CSV file                           |surface_flowdatabladeVALIDATION_Blade_18.csv|
|                                   |                     (7.92875 MB/s)|
+-----------------------------------------------------------------------+
+--------------------------------------+
|  Inner_Iter|    Cur_Time|    rms[Rho]|
+--------------------------------------+
|         610|  0.0000e+00|   -2.646004|
|         620|  0.0000e+00|   -2.553600|
|         630|  0.0000e+00|   -2.189198|
|         640|  0.0000e+00|   -2.117969|
|         650|  0.0000e+00|   -2.077390|
+-----------------------------------------------------------------------+
|        File Writing Summary       |              Filename             |
+-----------------------------------------------------------------------+
|SU2 binary restart                 |restart_flow_databladeVALIDATION_Blade_18.dat|
|                                   |                     (4046.21 MB/s)|
|Paraview                           |volume_flow_databladeVALIDATION_Blade_18.vtu|
|                                   |                     (426.403 MB/s)|
|Paraview surface                   |surface_flowdatabladeVALIDATION_Blade_18.vtu|
|                                   |                     (33.5293 MB/s)|
|SU2 ASCII restart                  |restart_flow_databladeVALIDATION_Blade_18.csv|
|                                   |                     (18.2217 MB/s)|
|CSV file                           |surface_flowdatabladeVALIDATION_Blade_18.csv|
|                                   |                      (12.766 MB/s)|
+-----------------------------------------------------------------------+
+--------------------------------------+
|  Inner_Iter|    Cur_Time|    rms[Rho]|
+--------------------------------------+
|         660|  0.0000e+00|   -1.935905|
|         670|  0.0000e+00|   -1.967186|
|         680|  0.0000e+00|   -1.877069|
|         690|  0.0000e+00|   -1.773764|
|         700|  0.0000e+00|   -1.764162|
+-----------------------------------------------------------------------+
|        File Writing Summary       |              Filename             |
+-----------------------------------------------------------------------+
|SU2 binary restart                 |restart_flow_databladeVALIDATION_Blade_18.dat|
|                                   |                     (5252.78 MB/s)|
|Paraview                           |volume_flow_databladeVALIDATION_Blade_18.vtu|
|                                   |                     (506.132 MB/s)|
|Paraview surface                   |surface_flowdatabladeVALIDATION_Blade_18.vtu|
|                                   |                     (36.7149 MB/s)|
|SU2 ASCII restart                  |restart_flow_databladeVALIDATION_Blade_18.csv|
|                                   |                     (18.4844 MB/s)|
|CSV file                           |surface_flowdatabladeVALIDATION_Blade_18.csv|
|                                   |                     (12.9321 MB/s)|
+-----------------------------------------------------------------------+
+--------------------------------------+
|  Inner_Iter|    Cur_Time|    rms[Rho]|
+--------------------------------------+
|         710|  0.0000e+00|   -1.833570|
|         720|  0.0000e+00|   -1.843972|
|         730|  0.0000e+00|   -1.775740|
|         740|  0.0000e+00|   -1.773117|
|         750|  0.0000e+00|   -1.680132|
+-----------------------------------------------------------------------+
|        File Writing Summary       |              Filename             |
+-----------------------------------------------------------------------+
|SU2 binary restart                 |restart_flow_databladeVALIDATION_Blade_18.dat|
|                                   |                     (4199.61 MB/s)|
|Paraview                           |volume_flow_databladeVALIDATION_Blade_18.vtu|
|                                   |                     (427.524 MB/s)|
|Paraview surface                   |surface_flowdatabladeVALIDATION_Blade_18.vtu|
|                                   |                     (33.7584 MB/s)|
|SU2 ASCII restart                  |restart_flow_databladeVALIDATION_Blade_18.csv|
|                                   |                     (18.6265 MB/s)|
|CSV file                           |surface_flowdatabladeVALIDATION_Blade_18.csv|
|                                   |                     (9.30429 MB/s)|
+-----------------------------------------------------------------------+
+--------------------------------------+
|  Inner_Iter|    Cur_Time|    rms[Rho]|
+--------------------------------------+
|         760|  0.0000e+00|   -1.645873|
|         770|  0.0000e+00|   -1.532962|
|         780|  0.0000e+00|   -1.366584|
|         790|  0.0000e+00|   -1.379726|


Error in "void CSolver::SetResidual_RMS(const CGeometry*, const CConfig*)": 
-------------------------------------------------------------------------
SU2 has diverged (NaN detected).
------------------------------ Error Exit -------------------------------



job aborted:
[ranks] message

[0] application aborted
aborting MPI_COMM_WORLD (comm=0x44000000), error 1, comm rank 0

[1-11] terminated

---- error analysis -----

[0] on LAPTOP-UFVPVEMV
SU2_CFD aborted the job. abort code 1

---- error analysis -----
