
-------------------------------------------------------------------------
|    ___ _   _ ___                                                      |
|   / __| | | |_  )   Release 8.0.1 "Harrier"                           |
|   \__ \ |_| |/ /                                                      |
|   |___/\___//___|   Suite (Computational Fluid Dynamics Code)         |
|                                                                       |
-------------------------------------------------------------------------
| SU2 Project Website: https://su2code.github.io                        |
|                                                                       |
| The SU2 Project is maintained by the SU2 Foundation                   |
| (http://su2foundation.org)                                            |
-------------------------------------------------------------------------
| Copyright 2012-2024, SU2 Contributors                                 |
|                                                                       |
| SU2 is free software; you can redistribute it and/or                  |
| modify it under the terms of the GNU Lesser General Public            |
| License as published by the Free Software Foundation; either          |
| version 2.1 of the License, or (at your option) any later version.    |
|                                                                       |
| SU2 is distributed in the hope that it will be useful,                |
| but WITHOUT ANY WARRANTY; without even the implied warranty of        |
| MERCHANTABILITY or FITNESS FOR A PARTICULAR PURPOSE. See the GNU      |
| Lesser General Public License for more details.                       |
|                                                                       |
| You should have received a copy of the GNU Lesser General Public      |
| License along with SU2. If not, see <http://www.gnu.org/licenses/>.   |
-------------------------------------------------------------------------

Parsing config file for zone 0

----------------- Physical Case Definition ( Zone 0 ) -------------------
Compressible RANS equations.
Turbulence model: Spalart-Allmaras-noft2-BCM
Hybrid RANS/LES: No Hybrid RANS/LES
Mach number: 0.667.
Angle of attack (AoA): -6 deg, and angle of sideslip (AoS): 0 deg.
Reynolds number: 600000. Reference length 1.0021.
No restart solution, use the values at infinity (freestream).
Dimensional simulation.
The reference area will be computed using y(2D) or z(3D) projection.
The semi-span will be computed using the max y(3D) value.
The reference length is 1.0021 m.
Reference origin for moment evaluation is (0, 0, 0).
Surface(s) where the force coefficients are evaluated: blade1.

Surface(s) plotted in the output file: blade1.
Surface(s) to be analyzed in detail: inlet, outlet, blade1.
Input mesh file name: cascade2D_databladeVALIDATION_Blade_20.su2

--------------- Space Numerical Integration ( Zone 0 ) ------------------
Jameson-Schmidt-Turkel scheme (2nd order in space) for the flow inviscid terms.
JST viscous coefficients (2nd & 4th): 0.5, 0.02.
The method includes a grid stretching correction (p = 0.3).
Scalar upwind solver for the turbulence model.
First order integration in space.
Average of gradients with correction (viscous flow terms).
Average of gradients with correction (viscous turbulence terms).
Gradient for upwind reconstruction: inverse-distance weighted Least-Squares.
Gradient for viscous and source terms: inverse-distance weighted Least-Squares.

--------------- Time Numerical Integration  ( Zone 0 ) ------------------
Local time stepping (steady state simulation).
Euler implicit method for the flow equations.
FGMRES is used for solving the linear system.
Using a LU-SGS preconditioning.
Convergence criteria of the linear solver: 0.0001.
Max number of linear iterations: 10.
V Multigrid Cycle, with 3 multigrid levels.
Damping factor for the residual restriction: 0.75.
Damping factor for the correction prolongation: 0.75.
CFL adaptation. Factor down: 0.1, factor up: 1.2,
                lower limit: 0.1, upper limit: 100,
                acceptable linear residual: 0.001.
+-------------------------------------------+
|  MG Level| Presmooth|PostSmooth|CorrectSmo|
+-------------------------------------------+
|         0|         1|         0|         1|
|         1|         2|         2|         2|
|         2|         3|         3|         3|
|         3|         3|         0|         0|
+-------------------------------------------+
Courant-Friedrichs-Lewy number:       12
Euler implicit time integration for the turbulence model.

------------------ Convergence Criteria  ( Zone 0 ) ---------------------
Maximum number of solver subiterations: 7000.
Begin convergence monitoring at iteration 500.
Residual minimum value: 1e-7.
Cauchy series min. value: 1e-10.
Number of Cauchy elements: 100.
Begin windowed time average at iteration 0.

-------------------- Output Information ( Zone 0 ) ----------------------
File writing frequency: 
+------------------------------------+
|                     File| Frequency|
+------------------------------------+
|                  RESTART|        50|
|                 PARAVIEW|        50|
|         SURFACE_PARAVIEW|        50|
|                      CSV|        50|
|              SURFACE_CSV|        50|
+------------------------------------+
Writing the convergence history file every 1 inner iterations.
Writing the screen convergence history every 10 inner iterations.
The tabular file format is CSV (.csv).
Convergence history file name: history_databladeVALIDATION_Blade_20.
Forces breakdown file name: forces_breakdown.dat.
Surface file name: surface_flowdatabladeVALIDATION_Blade_20.
Volume file name: volume_flow_databladeVALIDATION_Blade_20.
Restart file name: restart_flow_databladeVALIDATION_Blade_20.dat.

------------- Config File Boundary Information ( Zone 0 ) ---------------
+-----------------------------------------------------------------------+
|                        Marker Type|                        Marker Name|
+-----------------------------------------------------------------------+
|                  Periodic boundary|               symmetricWallsBOTTOM|
|                                   |                  symmetricWallsTOP|
+-----------------------------------------------------------------------+
|                     Inlet boundary|                              inlet|
+-----------------------------------------------------------------------+
|                    Outlet boundary|                             outlet|
+-----------------------------------------------------------------------+
|                     Heat flux wall|                             blade1|
|                                   |                             blade2|
+-----------------------------------------------------------------------+

-------------------- Output Preprocessing ( Zone 0 ) --------------------
  Info: Ignoring the following screen output fields:
  LINSOL_ITER_TRANS, LINSOL_RESIDUAL_TRANS
Screen output fields: INNER_ITER, CUR_TIME, RMS_DENSITY
  Info: Ignoring the following history output groups:
  RMS_TKE, RMS_DISSIPATION
History output group(s): INNER_ITER, WALL_TIME, RMS_DENSITY, RMS_MOMENTUM-X, RMS_ENERGY, LINSOL, CFL_NUMBER, FLOW_COEFF_SURF, AERO_COEFF_SURF
Convergence field(s): RMS_DENSITY
Warning: No (valid) fields chosen for time convergence monitoring. Time convergence monitoring inactive.
Volume output fields: COORDINATES, SOLUTION, PRIMITIVE, RESIDUAL, TIMESTEP, MESH_QUALITY, VORTEX_IDENTIFICATION

------------------- Geometry Preprocessing ( Zone 0 ) -------------------
Two dimensional problem.
71654 grid points before partitioning.
106196 volume elements before partitioning.
5 surface markers.
28 boundary elements in index 0 (Marker = inlet).
302 boundary elements in index 1 (Marker = symmetricWallsBOTTOM).
302 boundary elements in index 2 (Marker = symmetricWallsTOP).
28 boundary elements in index 3 (Marker = outlet).
1402 boundary elements in index 4 (Marker = blade1).
Executing the partitioning functions.
Building the graph adjacency structure.
Calling ParMETIS... graph partitioning complete (1492 edge cuts).
Distributing ParMETIS coloring.
Rebalancing vertices.
Rebalancing volume element connectivity.
Rebalancing markers and surface elements.
73515 vertices including ghost points. 
107676 interior elements including halo cells. 
72268 triangles.
35408 quadrilaterals.
Establishing MPI communication patterns.
Setting point connectivity.
Renumbering points (Reverse Cuthill McKee Ordering).
Recomputing point connectivity.
Setting element connectivity.
Checking the numerical grid orientation.
All volume elements are correctly orientend.
There has been a re-orientation of 1043 LINE surface elements.
Identifying edges and vertices.
Setting the control volume structure.
Area of the computational grid: 3.14738.
Searching for the closest normal neighbors to the surfaces.
Storing a mapping from global to local point index.
Compute the surface curvature.
Max K: 140.661. Mean K: 4.36489. Standard deviation K: 14.0526.
Checking for periodicity.
WARNING: Periodicity has been detected. Disabling multigrid. 
Computing mesh quality statistics for the dual control volumes.
+--------------------------------------------------------------+
|           Mesh Quality Metric|        Minimum|        Maximum|
+--------------------------------------------------------------+
|    Orthogonality Angle (deg.)|        52.2773|             90|
|     CV Face Area Aspect Ratio|        1.00014|        236.152|
|           CV Sub-Volume Ratio|              1|        28.8097|
+--------------------------------------------------------------+
Finding max control volume width.
Communicating number of neighbors.
Reference length = 1.01517 m.
Wetted area = 2.81977 m.
Area projection in the x-plane = 0.860508 m, y-plane = 1.01517 m.
Max. coordinate in the x-direction = 1.01503 m, y-direction = 0.751933 m.
Min. coordinate in the x-direction = -0.00014691 m, y-direction = -0.108581 m.
Matching the periodic boundary points for marker pair 1.
 Matched 606 points with a max distance of: 1.81598e-13.
Computing wall distances.

-------------------- Solver Preprocessing ( Zone 0 ) --------------------
Viscous flow: Computing pressure using the ideal gas law
based on the free-stream temperature and a density computed
from the Reynolds number.
Force coefficients computed using free-stream values.

-- Models:
+------------------------------------------------------------------------------+
|          Viscosity Model|        Conductivity Model|              Fluid Model|
+------------------------------------------------------------------------------+
|               SUTHERLAND|          CONSTANT_PRANDTL|                IDEAL_GAS|
+------------------------------------------------------------------------------+
-- Fluid properties:
+------------------------------------------------------------------------------+
|                  Name|    Dim. value|    Ref. value|      Unit|Non-dim. value|
+------------------------------------------------------------------------------+
|        Ref. Viscosity|     1.716e-05|             1|   N.s/m^2|     1.716e-05|
|      Sutherland Temp.|        273.15|             1|         K|        273.15|
|     Sutherland Const.|         110.4|             1|         K|         110.4|
+------------------------------------------------------------------------------+
|        Prandtl (Lam.)|             -|             -|         -|          0.72|
|       Prandtl (Turb.)|             -|             -|         -|           0.9|
+------------------------------------------------------------------------------+
|          Gas Constant|       287.058|             1|  N.m/kg.K|       287.058|
|      Spec. Heat Ratio|             -|             -|         -|           1.4|
+------------------------------------------------------------------------------+
-- Initial and free-stream conditions:
+------------------------------------------------------------------------------+
|                  Name|    Dim. value|    Ref. value|      Unit|Non-dim. value|
+------------------------------------------------------------------------------+
|       Static Pressure|       4109.68|             1|        Pa|       4109.68|
|               Density|     0.0477218|             1|    kg/m^3|     0.0477218|
|           Temperature|           300|             1|         K|           300|
|          Total Energy|        242112|             1|   m^2/s^2|        242112|
|            Velocity-X|        230.33|             1|       m/s|        230.33|
|            Velocity-Y|      -24.2086|             1|       m/s|      -24.2086|
|    Velocity Magnitude|       231.598|             1|       m/s|       231.598|
+------------------------------------------------------------------------------+
|             Viscosity|   1.84592e-05|             1|   N.s/m^2|   1.84592e-05|
|          Conductivity|             -|             1|   W/m^2.K|             -|
|     Turb. Kin. Energy|       98.5594|             1|   m^2/s^2|       98.5594|
|     Spec. Dissipation|   2.54802e+06|             1|       1/s|   2.54802e+06|
+------------------------------------------------------------------------------+
|           Mach Number|             -|             -|         -|         0.667|
|       Reynolds Number|             -|             -|         -|        600000|
+------------------------------------------------------------------------------+
Initialize Jacobian structure (Navier-Stokes). MG level: 0.
Initialize Jacobian structure (SA model).

------------------- Numerics Preprocessing ( Zone 0 ) -------------------

----------------- Integration Preprocessing ( Zone 0 ) ------------------

------------------- Iteration Preprocessing ( Zone 0 ) ------------------
Euler/Navier-Stokes/RANS fluid iteration.

------------------------------ Begin Solver -----------------------------

Simulation Run using the Single-zone Driver
WARNING: SU2 was not compiled for an AVX-capable architecture. Performance could be better,
         see https://su2code.github.io/docs_v7/Build-SU2-Linux-MacOS/#compiler-optimizations
+--------------------------------------+
|  Inner_Iter|    Cur_Time|    rms[Rho]|
+--------------------------------------+
|           0|  0.0000e+00|   -2.639583|
|          10|  0.0000e+00|   -3.252171|
|          20|  0.0000e+00|   -3.075358|
|          30|  0.0000e+00|   -3.078122|
|          40|  0.0000e+00|   -3.010857|
|          50|  0.0000e+00|   -2.929736|
+-----------------------------------------------------------------------+
|        File Writing Summary       |              Filename             |
+-----------------------------------------------------------------------+
|SU2 binary restart                 |restart_flow_databladeVALIDATION_Blade_20.dat|
|                                   |                     (15609.8 MB/s)|
|Paraview                           |volume_flow_databladeVALIDATION_Blade_20.vtu|
|                                   |                     (1047.72 MB/s)|
|Paraview surface                   |surface_flowdatabladeVALIDATION_Blade_20.vtu|
|                                   |                     (114.016 MB/s)|
|SU2 ASCII restart                  |restart_flow_databladeVALIDATION_Blade_20.csv|
|                                   |                     (22.4179 MB/s)|
|CSV file                           |surface_flowdatabladeVALIDATION_Blade_20.csv|
|                                   |                     (21.0115 MB/s)|
+-----------------------------------------------------------------------+
+--------------------------------------+
|  Inner_Iter|    Cur_Time|    rms[Rho]|
+--------------------------------------+
|          60|  0.0000e+00|   -3.098675|
|          70|  0.0000e+00|   -3.131557|
|          80|  0.0000e+00|   -3.151817|
|          90|  0.0000e+00|   -3.091971|
|         100|  0.0000e+00|   -3.037136|
+-----------------------------------------------------------------------+
|        File Writing Summary       |              Filename             |
+-----------------------------------------------------------------------+
|SU2 binary restart                 |restart_flow_databladeVALIDATION_Blade_20.dat|
|                                   |                     (14551.4 MB/s)|
|Paraview                           |volume_flow_databladeVALIDATION_Blade_20.vtu|
|                                   |                     (1088.69 MB/s)|
|Paraview surface                   |surface_flowdatabladeVALIDATION_Blade_20.vtu|
|                                   |                     (150.098 MB/s)|
|SU2 ASCII restart                  |restart_flow_databladeVALIDATION_Blade_20.csv|
|                                   |                     (22.5883 MB/s)|
|CSV file                           |surface_flowdatabladeVALIDATION_Blade_20.csv|
|                                   |                     (22.3058 MB/s)|
+-----------------------------------------------------------------------+
+--------------------------------------+
|  Inner_Iter|    Cur_Time|    rms[Rho]|
+--------------------------------------+
|         110|  0.0000e+00|   -3.072259|
|         120|  0.0000e+00|   -3.097821|
|         130|  0.0000e+00|   -3.029021|
|         140|  0.0000e+00|   -3.154986|
|         150|  0.0000e+00|   -3.116985|
+-----------------------------------------------------------------------+
|        File Writing Summary       |              Filename             |
+-----------------------------------------------------------------------+
|SU2 binary restart                 |restart_flow_databladeVALIDATION_Blade_20.dat|
|                                   |                     (14541.4 MB/s)|
|Paraview                           |volume_flow_databladeVALIDATION_Blade_20.vtu|
|                                   |                     (1135.37 MB/s)|
|Paraview surface                   |surface_flowdatabladeVALIDATION_Blade_20.vtu|
|                                   |                     (154.566 MB/s)|
|SU2 ASCII restart                  |restart_flow_databladeVALIDATION_Blade_20.csv|
|                                   |                     (21.5361 MB/s)|
|CSV file                           |surface_flowdatabladeVALIDATION_Blade_20.csv|
|                                   |                     (21.5591 MB/s)|
+-----------------------------------------------------------------------+
+--------------------------------------+
|  Inner_Iter|    Cur_Time|    rms[Rho]|
+--------------------------------------+
|         160|  0.0000e+00|   -3.078408|
|         170|  0.0000e+00|   -3.133966|
|         180|  0.0000e+00|   -3.139515|
|         190|  0.0000e+00|   -3.145050|
|         200|  0.0000e+00|   -3.134888|
+-----------------------------------------------------------------------+
|        File Writing Summary       |              Filename             |
+-----------------------------------------------------------------------+
|SU2 binary restart                 |restart_flow_databladeVALIDATION_Blade_20.dat|
|                                   |                     (14212.8 MB/s)|
|Paraview                           |volume_flow_databladeVALIDATION_Blade_20.vtu|
|                                   |                     (1080.31 MB/s)|
|Paraview surface                   |surface_flowdatabladeVALIDATION_Blade_20.vtu|
|                                   |                      (96.759 MB/s)|
|SU2 ASCII restart                  |restart_flow_databladeVALIDATION_Blade_20.csv|
|                                   |                     (22.2442 MB/s)|
|CSV file                           |surface_flowdatabladeVALIDATION_Blade_20.csv|
|                                   |                     (20.7126 MB/s)|
+-----------------------------------------------------------------------+
+--------------------------------------+
|  Inner_Iter|    Cur_Time|    rms[Rho]|
+--------------------------------------+
|         210|  0.0000e+00|   -3.172759|
|         220|  0.0000e+00|   -3.158373|
|         230|  0.0000e+00|   -3.183085|
|         240|  0.0000e+00|   -3.224884|
|         250|  0.0000e+00|   -3.256433|
+-----------------------------------------------------------------------+
|        File Writing Summary       |              Filename             |
+-----------------------------------------------------------------------+
|SU2 binary restart                 |restart_flow_databladeVALIDATION_Blade_20.dat|
|                                   |                     (13647.2 MB/s)|
|Paraview                           |volume_flow_databladeVALIDATION_Blade_20.vtu|
|                                   |                     (1200.95 MB/s)|
|Paraview surface                   |surface_flowdatabladeVALIDATION_Blade_20.vtu|
|                                   |                     (149.684 MB/s)|
|SU2 ASCII restart                  |restart_flow_databladeVALIDATION_Blade_20.csv|
|                                   |                     (22.1043 MB/s)|
|CSV file                           |surface_flowdatabladeVALIDATION_Blade_20.csv|
|                                   |                      (22.312 MB/s)|
+-----------------------------------------------------------------------+
+--------------------------------------+
|  Inner_Iter|    Cur_Time|    rms[Rho]|
+--------------------------------------+
|         260|  0.0000e+00|   -3.272799|
|         270|  0.0000e+00|   -3.177598|
|         280|  0.0000e+00|   -3.267484|
|         290|  0.0000e+00|   -3.315122|
|         300|  0.0000e+00|   -3.364738|
+-----------------------------------------------------------------------+
|        File Writing Summary       |              Filename             |
+-----------------------------------------------------------------------+
|SU2 binary restart                 |restart_flow_databladeVALIDATION_Blade_20.dat|
|                                   |                     (14351.8 MB/s)|
|Paraview                           |volume_flow_databladeVALIDATION_Blade_20.vtu|
|                                   |                     (1037.15 MB/s)|
|Paraview surface                   |surface_flowdatabladeVALIDATION_Blade_20.vtu|
|                                   |                     (94.9595 MB/s)|
|SU2 ASCII restart                  |restart_flow_databladeVALIDATION_Blade_20.csv|
|                                   |                     (22.3319 MB/s)|
|CSV file                           |surface_flowdatabladeVALIDATION_Blade_20.csv|
|                                   |                     (22.8237 MB/s)|
+-----------------------------------------------------------------------+
+--------------------------------------+
|  Inner_Iter|    Cur_Time|    rms[Rho]|
+--------------------------------------+
|         310|  0.0000e+00|   -3.382200|
|         320|  0.0000e+00|   -3.304880|
|         330|  0.0000e+00|   -3.342842|
|         340|  0.0000e+00|   -3.401011|
|         350|  0.0000e+00|   -3.457933|
+-----------------------------------------------------------------------+
|        File Writing Summary       |              Filename             |
+-----------------------------------------------------------------------+
|SU2 binary restart                 |restart_flow_databladeVALIDATION_Blade_20.dat|
|                                   |                     (13928.3 MB/s)|
|Paraview                           |volume_flow_databladeVALIDATION_Blade_20.vtu|
|                                   |                     (553.722 MB/s)|
|Paraview surface                   |surface_flowdatabladeVALIDATION_Blade_20.vtu|
|                                   |                     (111.732 MB/s)|
|SU2 ASCII restart                  |restart_flow_databladeVALIDATION_Blade_20.csv|
|                                   |                     (22.0874 MB/s)|
|CSV file                           |surface_flowdatabladeVALIDATION_Blade_20.csv|
|                                   |                     (21.9078 MB/s)|
+-----------------------------------------------------------------------+
+--------------------------------------+
|  Inner_Iter|    Cur_Time|    rms[Rho]|
+--------------------------------------+
|         360|  0.0000e+00|   -3.515862|
|         370|  0.0000e+00|   -3.486594|
|         380|  0.0000e+00|   -3.540243|
|         390|  0.0000e+00|   -3.632750|
|         400|  0.0000e+00|   -3.574179|
+-----------------------------------------------------------------------+
|        File Writing Summary       |              Filename             |
+-----------------------------------------------------------------------+
|SU2 binary restart                 |restart_flow_databladeVALIDATION_Blade_20.dat|
|                                   |                     (13547.5 MB/s)|
|Paraview                           |volume_flow_databladeVALIDATION_Blade_20.vtu|
|                                   |                      (1222.4 MB/s)|
|Paraview surface                   |surface_flowdatabladeVALIDATION_Blade_20.vtu|
|                                   |                     (122.434 MB/s)|
|SU2 ASCII restart                  |restart_flow_databladeVALIDATION_Blade_20.csv|
|                                   |                     (22.0918 MB/s)|
|CSV file                           |surface_flowdatabladeVALIDATION_Blade_20.csv|
|                                   |                     (19.9595 MB/s)|
+-----------------------------------------------------------------------+
+--------------------------------------+
|  Inner_Iter|    Cur_Time|    rms[Rho]|
+--------------------------------------+
|         410|  0.0000e+00|   -3.620930|
|         420|  0.0000e+00|   -3.708818|
|         430|  0.0000e+00|   -3.657789|
|         440|  0.0000e+00|   -3.625522|
|         450|  0.0000e+00|   -3.733859|
+-----------------------------------------------------------------------+
|        File Writing Summary       |              Filename             |
+-----------------------------------------------------------------------+
|SU2 binary restart                 |restart_flow_databladeVALIDATION_Blade_20.dat|
|                                   |                     (13471.4 MB/s)|
|Paraview                           |volume_flow_databladeVALIDATION_Blade_20.vtu|
|                                   |                     (1261.33 MB/s)|
|Paraview surface                   |surface_flowdatabladeVALIDATION_Blade_20.vtu|
|                                   |                     (105.715 MB/s)|
|SU2 ASCII restart                  |restart_flow_databladeVALIDATION_Blade_20.csv|
|                                   |                     (22.0302 MB/s)|
|CSV file                           |surface_flowdatabladeVALIDATION_Blade_20.csv|
|                                   |                     (20.1796 MB/s)|
+-----------------------------------------------------------------------+
+--------------------------------------+
|  Inner_Iter|    Cur_Time|    rms[Rho]|
+--------------------------------------+
|         460|  0.0000e+00|   -3.783856|
|         470|  0.0000e+00|   -3.756247|
|         480|  0.0000e+00|   -3.770329|
|         490|  0.0000e+00|   -3.768107|
|         500|  0.0000e+00|   -3.776444|
+-----------------------------------------------------------------------+
|        File Writing Summary       |              Filename             |
+-----------------------------------------------------------------------+
|SU2 binary restart                 |restart_flow_databladeVALIDATION_Blade_20.dat|
|                                   |                     (13255.3 MB/s)|
|Paraview                           |volume_flow_databladeVALIDATION_Blade_20.vtu|
|                                   |                     (1205.02 MB/s)|
|Paraview surface                   |surface_flowdatabladeVALIDATION_Blade_20.vtu|
|                                   |                     (121.408 MB/s)|
|SU2 ASCII restart                  |restart_flow_databladeVALIDATION_Blade_20.csv|
|                                   |                     (22.3818 MB/s)|
|CSV file                           |surface_flowdatabladeVALIDATION_Blade_20.csv|
|                                   |                     (22.3607 MB/s)|
+-----------------------------------------------------------------------+
+--------------------------------------+
|  Inner_Iter|    Cur_Time|    rms[Rho]|
+--------------------------------------+
|         510|  0.0000e+00|   -3.766509|
|         520|  0.0000e+00|   -3.755558|
|         530|  0.0000e+00|   -3.778695|
|         540|  0.0000e+00|   -3.793911|
|         550|  0.0000e+00|   -3.759677|
+-----------------------------------------------------------------------+
|        File Writing Summary       |              Filename             |
+-----------------------------------------------------------------------+
|SU2 binary restart                 |restart_flow_databladeVALIDATION_Blade_20.dat|
|                                   |                     (13107.6 MB/s)|
|Paraview                           |volume_flow_databladeVALIDATION_Blade_20.vtu|
|                                   |                     (1227.61 MB/s)|
|Paraview surface                   |surface_flowdatabladeVALIDATION_Blade_20.vtu|
|                                   |                      (115.13 MB/s)|
|SU2 ASCII restart                  |restart_flow_databladeVALIDATION_Blade_20.csv|
|                                   |                     (22.5329 MB/s)|
|CSV file                           |surface_flowdatabladeVALIDATION_Blade_20.csv|
|                                   |                     (20.3386 MB/s)|
+-----------------------------------------------------------------------+
+--------------------------------------+
|  Inner_Iter|    Cur_Time|    rms[Rho]|
+--------------------------------------+
|         560|  0.0000e+00|   -3.832782|
|         570|  0.0000e+00|   -3.840364|
|         580|  0.0000e+00|   -3.820182|
|         590|  0.0000e+00|   -3.849754|
|         600|  0.0000e+00|   -3.888833|
+-----------------------------------------------------------------------+
|        File Writing Summary       |              Filename             |
+-----------------------------------------------------------------------+
|SU2 binary restart                 |restart_flow_databladeVALIDATION_Blade_20.dat|
|                                   |                     (14681.2 MB/s)|
|Paraview                           |volume_flow_databladeVALIDATION_Blade_20.vtu|
|                                   |                     (1190.05 MB/s)|
|Paraview surface                   |surface_flowdatabladeVALIDATION_Blade_20.vtu|
|                                   |                     (59.3986 MB/s)|
|SU2 ASCII restart                  |restart_flow_databladeVALIDATION_Blade_20.csv|
|                                   |                     (21.8682 MB/s)|
|CSV file                           |surface_flowdatabladeVALIDATION_Blade_20.csv|
|                                   |                     (19.3205 MB/s)|
+-----------------------------------------------------------------------+
+--------------------------------------+
|  Inner_Iter|    Cur_Time|    rms[Rho]|
+--------------------------------------+
|         610|  0.0000e+00|   -3.862207|
|         620|  0.0000e+00|   -3.887857|
|         630|  0.0000e+00|   -3.921055|
|         640|  0.0000e+00|   -3.953727|
|         650|  0.0000e+00|   -3.930323|
+-----------------------------------------------------------------------+
|        File Writing Summary       |              Filename             |
+-----------------------------------------------------------------------+
|SU2 binary restart                 |restart_flow_databladeVALIDATION_Blade_20.dat|
|                                   |                       (14743 MB/s)|
|Paraview                           |volume_flow_databladeVALIDATION_Blade_20.vtu|
|                                   |                     (1216.24 MB/s)|
|Paraview surface                   |surface_flowdatabladeVALIDATION_Blade_20.vtu|
|                                   |                     (160.323 MB/s)|
|SU2 ASCII restart                  |restart_flow_databladeVALIDATION_Blade_20.csv|
|                                   |                     (21.9875 MB/s)|
|CSV file                           |surface_flowdatabladeVALIDATION_Blade_20.csv|
|                                   |                      (22.036 MB/s)|
+-----------------------------------------------------------------------+
+--------------------------------------+
|  Inner_Iter|    Cur_Time|    rms[Rho]|
+--------------------------------------+
|         660|  0.0000e+00|   -3.953806|
|         670|  0.0000e+00|   -3.977484|
|         680|  0.0000e+00|   -3.983500|
|         690|  0.0000e+00|   -3.994049|
|         700|  0.0000e+00|   -4.033891|
+-----------------------------------------------------------------------+
|        File Writing Summary       |              Filename             |
+-----------------------------------------------------------------------+
|SU2 binary restart                 |restart_flow_databladeVALIDATION_Blade_20.dat|
|                                   |                     (13394.2 MB/s)|
|Paraview                           |volume_flow_databladeVALIDATION_Blade_20.vtu|
|                                   |                     (1223.56 MB/s)|
|Paraview surface                   |surface_flowdatabladeVALIDATION_Blade_20.vtu|
|                                   |                     (117.846 MB/s)|
|SU2 ASCII restart                  |restart_flow_databladeVALIDATION_Blade_20.csv|
|                                   |                     (21.6073 MB/s)|
|CSV file                           |surface_flowdatabladeVALIDATION_Blade_20.csv|
|                                   |                     (20.8888 MB/s)|
+-----------------------------------------------------------------------+
+--------------------------------------+
|  Inner_Iter|    Cur_Time|    rms[Rho]|
+--------------------------------------+
|         710|  0.0000e+00|   -4.041757|
|         720|  0.0000e+00|   -4.040571|
|         730|  0.0000e+00|   -4.052208|
|         740|  0.0000e+00|   -4.061983|
|         750|  0.0000e+00|   -4.038634|
+-----------------------------------------------------------------------+
|        File Writing Summary       |              Filename             |
+-----------------------------------------------------------------------+
|SU2 binary restart                 |restart_flow_databladeVALIDATION_Blade_20.dat|
|                                   |                     (13999.4 MB/s)|
|Paraview                           |volume_flow_databladeVALIDATION_Blade_20.vtu|
|                                   |                     (1193.86 MB/s)|
|Paraview surface                   |surface_flowdatabladeVALIDATION_Blade_20.vtu|
|                                   |                     (118.507 MB/s)|
|SU2 ASCII restart                  |restart_flow_databladeVALIDATION_Blade_20.csv|
|                                   |                     (21.6181 MB/s)|
|CSV file                           |surface_flowdatabladeVALIDATION_Blade_20.csv|
|                                   |                     (21.5871 MB/s)|
+-----------------------------------------------------------------------+
+--------------------------------------+
|  Inner_Iter|    Cur_Time|    rms[Rho]|
+--------------------------------------+
|         760|  0.0000e+00|   -4.071734|
|         770|  0.0000e+00|   -4.105937|
|         780|  0.0000e+00|   -4.087532|
|         790|  0.0000e+00|   -4.104627|
|         800|  0.0000e+00|   -4.138649|
+-----------------------------------------------------------------------+
|        File Writing Summary       |              Filename             |
+-----------------------------------------------------------------------+
|SU2 binary restart                 |restart_flow_databladeVALIDATION_Blade_20.dat|
|                                   |                     (14721.2 MB/s)|
|Paraview                           |volume_flow_databladeVALIDATION_Blade_20.vtu|
|                                   |                     (1189.73 MB/s)|
|Paraview surface                   |surface_flowdatabladeVALIDATION_Blade_20.vtu|
|                                   |                     (117.342 MB/s)|
|SU2 ASCII restart                  |restart_flow_databladeVALIDATION_Blade_20.csv|
|                                   |                     (22.2232 MB/s)|
|CSV file                           |surface_flowdatabladeVALIDATION_Blade_20.csv|
|                                   |                     (22.2261 MB/s)|
+-----------------------------------------------------------------------+
+--------------------------------------+
|  Inner_Iter|    Cur_Time|    rms[Rho]|
+--------------------------------------+
|         810|  0.0000e+00|   -4.131247|
|         820|  0.0000e+00|   -4.113180|
|         830|  0.0000e+00|   -4.149806|
|         840|  0.0000e+00|   -4.171122|
|         850|  0.0000e+00|   -4.177573|
+-----------------------------------------------------------------------+
|        File Writing Summary       |              Filename             |
+-----------------------------------------------------------------------+
|SU2 binary restart                 |restart_flow_databladeVALIDATION_Blade_20.dat|
|                                   |                     (14034.7 MB/s)|
|Paraview                           |volume_flow_databladeVALIDATION_Blade_20.vtu|
|                                   |                     (995.495 MB/s)|
|Paraview surface                   |surface_flowdatabladeVALIDATION_Blade_20.vtu|
|                                   |                     (50.8479 MB/s)|
|SU2 ASCII restart                  |restart_flow_databladeVALIDATION_Blade_20.csv|
|                                   |                     (21.6485 MB/s)|
|CSV file                           |surface_flowdatabladeVALIDATION_Blade_20.csv|
|                                   |                       (22.16 MB/s)|
+-----------------------------------------------------------------------+
+--------------------------------------+
|  Inner_Iter|    Cur_Time|    rms[Rho]|
+--------------------------------------+
|         860|  0.0000e+00|   -4.193438|
|         870|  0.0000e+00|   -4.227403|
|         880|  0.0000e+00|   -4.263567|
|         890|  0.0000e+00|   -4.213983|
|         900|  0.0000e+00|   -4.223690|
+-----------------------------------------------------------------------+
|        File Writing Summary       |              Filename             |
+-----------------------------------------------------------------------+
|SU2 binary restart                 |restart_flow_databladeVALIDATION_Blade_20.dat|
|                                   |                     (14778.6 MB/s)|
|Paraview                           |volume_flow_databladeVALIDATION_Blade_20.vtu|
|                                   |                     (1164.82 MB/s)|
|Paraview surface                   |surface_flowdatabladeVALIDATION_Blade_20.vtu|
|                                   |                     (121.355 MB/s)|
|SU2 ASCII restart                  |restart_flow_databladeVALIDATION_Blade_20.csv|
|                                   |                     (22.1611 MB/s)|
|CSV file                           |surface_flowdatabladeVALIDATION_Blade_20.csv|
|                                   |                     (19.4907 MB/s)|
+-----------------------------------------------------------------------+
+--------------------------------------+
|  Inner_Iter|    Cur_Time|    rms[Rho]|
+--------------------------------------+
|         910|  0.0000e+00|   -4.237799|
|         920|  0.0000e+00|   -4.281927|
|         930|  0.0000e+00|   -4.331096|
|         940|  0.0000e+00|   -4.332474|
|         950|  0.0000e+00|   -4.312324|
+-----------------------------------------------------------------------+
|        File Writing Summary       |              Filename             |
+-----------------------------------------------------------------------+
|SU2 binary restart                 |restart_flow_databladeVALIDATION_Blade_20.dat|
|                                   |                     (14856.4 MB/s)|
|Paraview                           |volume_flow_databladeVALIDATION_Blade_20.vtu|
|                                   |                     (1189.24 MB/s)|
|Paraview surface                   |surface_flowdatabladeVALIDATION_Blade_20.vtu|
|                                   |                     (119.053 MB/s)|
|SU2 ASCII restart                  |restart_flow_databladeVALIDATION_Blade_20.csv|
|                                   |                     (22.0739 MB/s)|
|CSV file                           |surface_flowdatabladeVALIDATION_Blade_20.csv|
|                                   |                     (20.3411 MB/s)|
+-----------------------------------------------------------------------+
+--------------------------------------+
|  Inner_Iter|    Cur_Time|    rms[Rho]|
+--------------------------------------+
|         960|  0.0000e+00|   -4.361539|
|         970|  0.0000e+00|   -4.397863|
|         980|  0.0000e+00|   -4.401422|
|         990|  0.0000e+00|   -4.387409|
|        1000|  0.0000e+00|   -4.431551|
+-----------------------------------------------------------------------+
|        File Writing Summary       |              Filename             |
+-----------------------------------------------------------------------+
|SU2 binary restart                 |restart_flow_databladeVALIDATION_Blade_20.dat|
|                                   |                     (13957.1 MB/s)|
|Paraview                           |volume_flow_databladeVALIDATION_Blade_20.vtu|
|                                   |                     (1151.58 MB/s)|
|Paraview surface                   |surface_flowdatabladeVALIDATION_Blade_20.vtu|
|                                   |                     (120.651 MB/s)|
|SU2 ASCII restart                  |restart_flow_databladeVALIDATION_Blade_20.csv|
|                                   |                     (21.9057 MB/s)|
|CSV file                           |surface_flowdatabladeVALIDATION_Blade_20.csv|
|                                   |                     (22.4964 MB/s)|
+-----------------------------------------------------------------------+
+--------------------------------------+
|  Inner_Iter|    Cur_Time|    rms[Rho]|
+--------------------------------------+
|        1010|  0.0000e+00|   -4.461191|
|        1020|  0.0000e+00|   -4.463643|
|        1030|  0.0000e+00|   -4.463039|
|        1040|  0.0000e+00|   -4.508602|
|        1050|  0.0000e+00|   -4.524684|
+-----------------------------------------------------------------------+
|        File Writing Summary       |              Filename             |
+-----------------------------------------------------------------------+
|SU2 binary restart                 |restart_flow_databladeVALIDATION_Blade_20.dat|
|                                   |                     (14340.9 MB/s)|
|Paraview                           |volume_flow_databladeVALIDATION_Blade_20.vtu|
|                                   |                     (1159.52 MB/s)|
|Paraview surface                   |surface_flowdatabladeVALIDATION_Blade_20.vtu|
|                                   |                     (120.925 MB/s)|
|SU2 ASCII restart                  |restart_flow_databladeVALIDATION_Blade_20.csv|
|                                   |                     (21.9007 MB/s)|
|CSV file                           |surface_flowdatabladeVALIDATION_Blade_20.csv|
|                                   |                     (22.4012 MB/s)|
+-----------------------------------------------------------------------+
+--------------------------------------+
|  Inner_Iter|    Cur_Time|    rms[Rho]|
+--------------------------------------+
|        1060|  0.0000e+00|   -4.502259|
|        1070|  0.0000e+00|   -4.546585|
|        1080|  0.0000e+00|   -4.572910|
|        1090|  0.0000e+00|   -4.568244|
|        1100|  0.0000e+00|   -4.558910|
+-----------------------------------------------------------------------+
|        File Writing Summary       |              Filename             |
+-----------------------------------------------------------------------+
|SU2 binary restart                 |restart_flow_databladeVALIDATION_Blade_20.dat|
|                                   |                       (14402 MB/s)|
|Paraview                           |volume_flow_databladeVALIDATION_Blade_20.vtu|
|                                   |                     (1121.66 MB/s)|
|Paraview surface                   |surface_flowdatabladeVALIDATION_Blade_20.vtu|
|                                   |                     (116.821 MB/s)|
|SU2 ASCII restart                  |restart_flow_databladeVALIDATION_Blade_20.csv|
|                                   |                     (21.4681 MB/s)|
|CSV file                           |surface_flowdatabladeVALIDATION_Blade_20.csv|
|                                   |                     (20.5016 MB/s)|
+-----------------------------------------------------------------------+
+--------------------------------------+
|  Inner_Iter|    Cur_Time|    rms[Rho]|
+--------------------------------------+
|        1110|  0.0000e+00|   -4.594850|
|        1120|  0.0000e+00|   -4.638480|
|        1130|  0.0000e+00|   -4.631740|
|        1140|  0.0000e+00|   -4.624932|
|        1150|  0.0000e+00|   -4.665512|
+-----------------------------------------------------------------------+
|        File Writing Summary       |              Filename             |
+-----------------------------------------------------------------------+
|SU2 binary restart                 |restart_flow_databladeVALIDATION_Blade_20.dat|
|                                   |                     (13410.3 MB/s)|
|Paraview                           |volume_flow_databladeVALIDATION_Blade_20.vtu|
|                                   |                     (1144.39 MB/s)|
|Paraview surface                   |surface_flowdatabladeVALIDATION_Blade_20.vtu|
|                                   |                     (115.317 MB/s)|
|SU2 ASCII restart                  |restart_flow_databladeVALIDATION_Blade_20.csv|
|                                   |                     (21.4824 MB/s)|
|CSV file                           |surface_flowdatabladeVALIDATION_Blade_20.csv|
|                                   |                     (20.3909 MB/s)|
+-----------------------------------------------------------------------+
+--------------------------------------+
|  Inner_Iter|    Cur_Time|    rms[Rho]|
+--------------------------------------+
|        1160|  0.0000e+00|   -4.645594|
|        1170|  0.0000e+00|   -4.651023|
|        1180|  0.0000e+00|   -4.657003|
|        1190|  0.0000e+00|   -4.679235|
|        1200|  0.0000e+00|   -4.723539|
+-----------------------------------------------------------------------+
|        File Writing Summary       |              Filename             |
+-----------------------------------------------------------------------+
|SU2 binary restart                 |restart_flow_databladeVALIDATION_Blade_20.dat|
|                                   |                     (14094.2 MB/s)|
|Paraview                           |volume_flow_databladeVALIDATION_Blade_20.vtu|
|                                   |                     (1038.21 MB/s)|
|Paraview surface                   |surface_flowdatabladeVALIDATION_Blade_20.vtu|
|                                   |                     (111.647 MB/s)|
|SU2 ASCII restart                  |restart_flow_databladeVALIDATION_Blade_20.csv|
|                                   |                     (21.4638 MB/s)|
|CSV file                           |surface_flowdatabladeVALIDATION_Blade_20.csv|
|                                   |                     (20.2939 MB/s)|
+-----------------------------------------------------------------------+
+--------------------------------------+
|  Inner_Iter|    Cur_Time|    rms[Rho]|
+--------------------------------------+
|        1210|  0.0000e+00|   -4.706281|
|        1220|  0.0000e+00|   -4.744008|
|        1230|  0.0000e+00|   -4.749463|
|        1240|  0.0000e+00|   -4.741249|
|        1250|  0.0000e+00|   -4.750329|
+-----------------------------------------------------------------------+
|        File Writing Summary       |              Filename             |
+-----------------------------------------------------------------------+
|SU2 binary restart                 |restart_flow_databladeVALIDATION_Blade_20.dat|
|                                   |                     (14079.6 MB/s)|
|Paraview                           |volume_flow_databladeVALIDATION_Blade_20.vtu|
|                                   |                     (1185.98 MB/s)|
|Paraview surface                   |surface_flowdatabladeVALIDATION_Blade_20.vtu|
|                                   |                     (163.053 MB/s)|
|SU2 ASCII restart                  |restart_flow_databladeVALIDATION_Blade_20.csv|
|                                   |                     (22.0695 MB/s)|
|CSV file                           |surface_flowdatabladeVALIDATION_Blade_20.csv|
|                                   |                     (20.6791 MB/s)|
+-----------------------------------------------------------------------+
+--------------------------------------+
|  Inner_Iter|    Cur_Time|    rms[Rho]|
+--------------------------------------+
|        1260|  0.0000e+00|   -4.775610|
|        1270|  0.0000e+00|   -4.745966|
|        1280|  0.0000e+00|   -4.785710|
|        1290|  0.0000e+00|   -4.764811|
|        1300|  0.0000e+00|   -4.804700|
+-----------------------------------------------------------------------+
|        File Writing Summary       |              Filename             |
+-----------------------------------------------------------------------+
|SU2 binary restart                 |restart_flow_databladeVALIDATION_Blade_20.dat|
|                                   |                     (14377.9 MB/s)|
|Paraview                           |volume_flow_databladeVALIDATION_Blade_20.vtu|
|                                   |                     (1156.76 MB/s)|
|Paraview surface                   |surface_flowdatabladeVALIDATION_Blade_20.vtu|
|                                   |                     (113.348 MB/s)|
|SU2 ASCII restart                  |restart_flow_databladeVALIDATION_Blade_20.csv|
|                                   |                     (22.1673 MB/s)|
|CSV file                           |surface_flowdatabladeVALIDATION_Blade_20.csv|
|                                   |                     (22.7862 MB/s)|
+-----------------------------------------------------------------------+
+--------------------------------------+
|  Inner_Iter|    Cur_Time|    rms[Rho]|
+--------------------------------------+
|        1310|  0.0000e+00|   -4.813358|
|        1320|  0.0000e+00|   -4.784336|
|        1330|  0.0000e+00|   -4.807264|
|        1340|  0.0000e+00|   -4.821443|
|        1350|  0.0000e+00|   -4.851649|
+-----------------------------------------------------------------------+
|        File Writing Summary       |              Filename             |
+-----------------------------------------------------------------------+
|SU2 binary restart                 |restart_flow_databladeVALIDATION_Blade_20.dat|
|                                   |                       (14184 MB/s)|
|Paraview                           |volume_flow_databladeVALIDATION_Blade_20.vtu|
|                                   |                     (1059.84 MB/s)|
|Paraview surface                   |surface_flowdatabladeVALIDATION_Blade_20.vtu|
|                                   |                      (118.65 MB/s)|
|SU2 ASCII restart                  |restart_flow_databladeVALIDATION_Blade_20.csv|
|                                   |                     (21.7938 MB/s)|
|CSV file                           |surface_flowdatabladeVALIDATION_Blade_20.csv|
|                                   |                     (22.3514 MB/s)|
+-----------------------------------------------------------------------+
+--------------------------------------+
|  Inner_Iter|    Cur_Time|    rms[Rho]|
+--------------------------------------+
|        1360|  0.0000e+00|   -4.861577|
|        1370|  0.0000e+00|   -4.896694|
|        1380|  0.0000e+00|   -4.899303|
|        1390|  0.0000e+00|   -4.892333|
|        1400|  0.0000e+00|   -4.898199|
+-----------------------------------------------------------------------+
|        File Writing Summary       |              Filename             |
+-----------------------------------------------------------------------+
|SU2 binary restart                 |restart_flow_databladeVALIDATION_Blade_20.dat|
|                                   |                     (12019.8 MB/s)|
|Paraview                           |volume_flow_databladeVALIDATION_Blade_20.vtu|
|                                   |                     (1163.64 MB/s)|
|Paraview surface                   |surface_flowdatabladeVALIDATION_Blade_20.vtu|
|                                   |                     (120.952 MB/s)|
|SU2 ASCII restart                  |restart_flow_databladeVALIDATION_Blade_20.csv|
|                                   |                     (22.3487 MB/s)|
|CSV file                           |surface_flowdatabladeVALIDATION_Blade_20.csv|
|                                   |                     (22.4069 MB/s)|
+-----------------------------------------------------------------------+
+--------------------------------------+
|  Inner_Iter|    Cur_Time|    rms[Rho]|
+--------------------------------------+
|        1410|  0.0000e+00|   -4.912288|
|        1420|  0.0000e+00|   -4.899520|
|        1430|  0.0000e+00|   -4.875050|
|        1440|  0.0000e+00|   -4.900329|
|        1450|  0.0000e+00|   -4.916661|
+-----------------------------------------------------------------------+
|        File Writing Summary       |              Filename             |
+-----------------------------------------------------------------------+
|SU2 binary restart                 |restart_flow_databladeVALIDATION_Blade_20.dat|
|                                   |                     (13521.4 MB/s)|
|Paraview                           |volume_flow_databladeVALIDATION_Blade_20.vtu|
|                                   |                     (959.406 MB/s)|
|Paraview surface                   |surface_flowdatabladeVALIDATION_Blade_20.vtu|
|                                   |                     (105.408 MB/s)|
|SU2 ASCII restart                  |restart_flow_databladeVALIDATION_Blade_20.csv|
|                                   |                     (21.7625 MB/s)|
|CSV file                           |surface_flowdatabladeVALIDATION_Blade_20.csv|
|                                   |                     (21.8781 MB/s)|
+-----------------------------------------------------------------------+
+--------------------------------------+
|  Inner_Iter|    Cur_Time|    rms[Rho]|
+--------------------------------------+
|        1460|  0.0000e+00|   -4.912093|
|        1470|  0.0000e+00|   -4.897251|
|        1480|  0.0000e+00|   -4.946122|
|        1490|  0.0000e+00|   -4.958129|
|        1500|  0.0000e+00|   -4.915635|
+-----------------------------------------------------------------------+
|        File Writing Summary       |              Filename             |
+-----------------------------------------------------------------------+
|SU2 binary restart                 |restart_flow_databladeVALIDATION_Blade_20.dat|
|                                   |                     (14076.4 MB/s)|
|Paraview                           |volume_flow_databladeVALIDATION_Blade_20.vtu|
|                                   |                     (1205.21 MB/s)|
|Paraview surface                   |surface_flowdatabladeVALIDATION_Blade_20.vtu|
|                                   |                     (116.399 MB/s)|
|SU2 ASCII restart                  |restart_flow_databladeVALIDATION_Blade_20.csv|
|                                   |                     (22.2529 MB/s)|
|CSV file                           |surface_flowdatabladeVALIDATION_Blade_20.csv|
|                                   |                     (23.3146 MB/s)|
+-----------------------------------------------------------------------+
+--------------------------------------+
|  Inner_Iter|    Cur_Time|    rms[Rho]|
+--------------------------------------+
|        1510|  0.0000e+00|   -4.980294|
|        1520|  0.0000e+00|   -4.994249|
|        1530|  0.0000e+00|   -4.980141|
|        1540|  0.0000e+00|   -4.964007|
|        1550|  0.0000e+00|   -4.999116|
+-----------------------------------------------------------------------+
|        File Writing Summary       |              Filename             |
+-----------------------------------------------------------------------+
|SU2 binary restart                 |restart_flow_databladeVALIDATION_Blade_20.dat|
|                                   |                       (14355 MB/s)|
|Paraview                           |volume_flow_databladeVALIDATION_Blade_20.vtu|
|                                   |                     (1187.02 MB/s)|
|Paraview surface                   |surface_flowdatabladeVALIDATION_Blade_20.vtu|
|                                   |                     (122.402 MB/s)|
|SU2 ASCII restart                  |restart_flow_databladeVALIDATION_Blade_20.csv|
|                                   |                     (21.6286 MB/s)|
|CSV file                           |surface_flowdatabladeVALIDATION_Blade_20.csv|
|                                   |                     (20.2217 MB/s)|
+-----------------------------------------------------------------------+
+--------------------------------------+
|  Inner_Iter|    Cur_Time|    rms[Rho]|
+--------------------------------------+
|        1560|  0.0000e+00|   -4.996443|
|        1570|  0.0000e+00|   -4.966073|
|        1580|  0.0000e+00|   -4.971945|
|        1590|  0.0000e+00|   -4.976790|
|        1600|  0.0000e+00|   -5.027071|
+-----------------------------------------------------------------------+
|        File Writing Summary       |              Filename             |
+-----------------------------------------------------------------------+
|SU2 binary restart                 |restart_flow_databladeVALIDATION_Blade_20.dat|
|                                   |                     (13485.8 MB/s)|
|Paraview                           |volume_flow_databladeVALIDATION_Blade_20.vtu|
|                                   |                      (1178.5 MB/s)|
|Paraview surface                   |surface_flowdatabladeVALIDATION_Blade_20.vtu|
|                                   |                     (114.715 MB/s)|
|SU2 ASCII restart                  |restart_flow_databladeVALIDATION_Blade_20.csv|
|                                   |                     (22.0178 MB/s)|
|CSV file                           |surface_flowdatabladeVALIDATION_Blade_20.csv|
|                                   |                     (20.6625 MB/s)|
+-----------------------------------------------------------------------+
+--------------------------------------+
|  Inner_Iter|    Cur_Time|    rms[Rho]|
+--------------------------------------+
|        1610|  0.0000e+00|   -5.056974|
|        1620|  0.0000e+00|   -5.064570|
|        1630|  0.0000e+00|   -5.018658|
|        1640|  0.0000e+00|   -5.029004|
|        1650|  0.0000e+00|   -5.075863|
+-----------------------------------------------------------------------+
|        File Writing Summary       |              Filename             |
+-----------------------------------------------------------------------+
|SU2 binary restart                 |restart_flow_databladeVALIDATION_Blade_20.dat|
|                                   |                     (13794.3 MB/s)|
|Paraview                           |volume_flow_databladeVALIDATION_Blade_20.vtu|
|                                   |                     (1257.02 MB/s)|
|Paraview surface                   |surface_flowdatabladeVALIDATION_Blade_20.vtu|
|                                   |                     (121.483 MB/s)|
|SU2 ASCII restart                  |restart_flow_databladeVALIDATION_Blade_20.csv|
|                                   |                     (21.8159 MB/s)|
|CSV file                           |surface_flowdatabladeVALIDATION_Blade_20.csv|
|                                   |                     (21.5036 MB/s)|
+-----------------------------------------------------------------------+
+--------------------------------------+
|  Inner_Iter|    Cur_Time|    rms[Rho]|
+--------------------------------------+
|        1660|  0.0000e+00|   -5.081677|
|        1670|  0.0000e+00|   -5.087571|
|        1680|  0.0000e+00|   -5.112516|
|        1690|  0.0000e+00|   -5.146468|
|        1700|  0.0000e+00|   -5.117935|
+-----------------------------------------------------------------------+
|        File Writing Summary       |              Filename             |
+-----------------------------------------------------------------------+
|SU2 binary restart                 |restart_flow_databladeVALIDATION_Blade_20.dat|
|                                   |                     (14589.6 MB/s)|
|Paraview                           |volume_flow_databladeVALIDATION_Blade_20.vtu|
|                                   |                     (1207.43 MB/s)|
|Paraview surface                   |surface_flowdatabladeVALIDATION_Blade_20.vtu|
|                                   |                      (120.73 MB/s)|
|SU2 ASCII restart                  |restart_flow_databladeVALIDATION_Blade_20.csv|
|                                   |                     (22.0832 MB/s)|
|CSV file                           |surface_flowdatabladeVALIDATION_Blade_20.csv|
|                                   |                     (20.0173 MB/s)|
+-----------------------------------------------------------------------+
+--------------------------------------+
|  Inner_Iter|    Cur_Time|    rms[Rho]|
+--------------------------------------+
|        1710|  0.0000e+00|   -5.118963|
|        1720|  0.0000e+00|   -5.137939|
|        1730|  0.0000e+00|   -5.151557|
|        1740|  0.0000e+00|   -5.144402|
|        1750|  0.0000e+00|   -5.135510|
+-----------------------------------------------------------------------+
|        File Writing Summary       |              Filename             |
+-----------------------------------------------------------------------+
|SU2 binary restart                 |restart_flow_databladeVALIDATION_Blade_20.dat|
|                                   |                     (14460.3 MB/s)|
|Paraview                           |volume_flow_databladeVALIDATION_Blade_20.vtu|
|                                   |                     (1081.58 MB/s)|
|Paraview surface                   |surface_flowdatabladeVALIDATION_Blade_20.vtu|
|                                   |                     (104.989 MB/s)|
|SU2 ASCII restart                  |restart_flow_databladeVALIDATION_Blade_20.csv|
|                                   |                     (21.4097 MB/s)|
|CSV file                           |surface_flowdatabladeVALIDATION_Blade_20.csv|
|                                   |                     (21.7134 MB/s)|
+-----------------------------------------------------------------------+
+--------------------------------------+
|  Inner_Iter|    Cur_Time|    rms[Rho]|
+--------------------------------------+
|        1760|  0.0000e+00|   -5.162087|
|        1770|  0.0000e+00|   -5.176234|
|        1780|  0.0000e+00|   -5.193740|
|        1790|  0.0000e+00|   -5.216641|
|        1800|  0.0000e+00|   -5.232577|
+-----------------------------------------------------------------------+
|        File Writing Summary       |              Filename             |
+-----------------------------------------------------------------------+
|SU2 binary restart                 |restart_flow_databladeVALIDATION_Blade_20.dat|
|                                   |                     (12940.9 MB/s)|
|Paraview                           |volume_flow_databladeVALIDATION_Blade_20.vtu|
|                                   |                     (1173.71 MB/s)|
|Paraview surface                   |surface_flowdatabladeVALIDATION_Blade_20.vtu|
|                                   |                     (107.305 MB/s)|
|SU2 ASCII restart                  |restart_flow_databladeVALIDATION_Blade_20.csv|
|                                   |                     (21.9197 MB/s)|
|CSV file                           |surface_flowdatabladeVALIDATION_Blade_20.csv|
|                                   |                     (23.1629 MB/s)|
+-----------------------------------------------------------------------+
+--------------------------------------+
|  Inner_Iter|    Cur_Time|    rms[Rho]|
+--------------------------------------+
|        1810|  0.0000e+00|   -5.229052|
|        1820|  0.0000e+00|   -5.232847|
|        1830|  0.0000e+00|   -5.261602|
|        1840|  0.0000e+00|   -5.273891|
|        1850|  0.0000e+00|   -5.254127|
+-----------------------------------------------------------------------+
|        File Writing Summary       |              Filename             |
+-----------------------------------------------------------------------+
|SU2 binary restart                 |restart_flow_databladeVALIDATION_Blade_20.dat|
|                                   |                     (14539.1 MB/s)|
|Paraview                           |volume_flow_databladeVALIDATION_Blade_20.vtu|
|                                   |                     (1138.59 MB/s)|
|Paraview surface                   |surface_flowdatabladeVALIDATION_Blade_20.vtu|
|                                   |                      (120.53 MB/s)|
|SU2 ASCII restart                  |restart_flow_databladeVALIDATION_Blade_20.csv|
|                                   |                     (21.2921 MB/s)|
|CSV file                           |surface_flowdatabladeVALIDATION_Blade_20.csv|
|                                   |                     (22.8469 MB/s)|
+-----------------------------------------------------------------------+
+--------------------------------------+
|  Inner_Iter|    Cur_Time|    rms[Rho]|
+--------------------------------------+
|        1860|  0.0000e+00|   -5.276363|
|        1870|  0.0000e+00|   -5.293232|
|        1880|  0.0000e+00|   -5.277823|
|        1890|  0.0000e+00|   -5.238590|
|        1900|  0.0000e+00|   -5.270885|
+-----------------------------------------------------------------------+
|        File Writing Summary       |              Filename             |
+-----------------------------------------------------------------------+
|SU2 binary restart                 |restart_flow_databladeVALIDATION_Blade_20.dat|
|                                   |                     (14353.9 MB/s)|
|Paraview                           |volume_flow_databladeVALIDATION_Blade_20.vtu|
|                                   |                     (1189.57 MB/s)|
|Paraview surface                   |surface_flowdatabladeVALIDATION_Blade_20.vtu|
|                                   |                      (118.31 MB/s)|
|SU2 ASCII restart                  |restart_flow_databladeVALIDATION_Blade_20.csv|
|                                   |                     (22.1769 MB/s)|
|CSV file                           |surface_flowdatabladeVALIDATION_Blade_20.csv|
|                                   |                     (22.0545 MB/s)|
+-----------------------------------------------------------------------+
+--------------------------------------+
|  Inner_Iter|    Cur_Time|    rms[Rho]|
+--------------------------------------+
|        1910|  0.0000e+00|   -5.293955|
|        1920|  0.0000e+00|   -5.290450|
|        1930|  0.0000e+00|   -5.279536|
|        1940|  0.0000e+00|   -5.341968|
|        1950|  0.0000e+00|   -5.326979|
+-----------------------------------------------------------------------+
|        File Writing Summary       |              Filename             |
+-----------------------------------------------------------------------+
|SU2 binary restart                 |restart_flow_databladeVALIDATION_Blade_20.dat|
|                                   |                     (14819.1 MB/s)|
|Paraview                           |volume_flow_databladeVALIDATION_Blade_20.vtu|
|                                   |                     (1207.37 MB/s)|
|Paraview surface                   |surface_flowdatabladeVALIDATION_Blade_20.vtu|
|                                   |                     (121.488 MB/s)|
|SU2 ASCII restart                  |restart_flow_databladeVALIDATION_Blade_20.csv|
|                                   |                     (21.8602 MB/s)|
|CSV file                           |surface_flowdatabladeVALIDATION_Blade_20.csv|
|                                   |                     (22.2198 MB/s)|
+-----------------------------------------------------------------------+
+--------------------------------------+
|  Inner_Iter|    Cur_Time|    rms[Rho]|
+--------------------------------------+
|        1960|  0.0000e+00|   -5.278634|
|        1970|  0.0000e+00|   -5.328266|
|        1980|  0.0000e+00|   -5.312726|
|        1990|  0.0000e+00|   -5.290993|
|        2000|  0.0000e+00|   -5.310311|
+-----------------------------------------------------------------------+
|        File Writing Summary       |              Filename             |
+-----------------------------------------------------------------------+
|SU2 binary restart                 |restart_flow_databladeVALIDATION_Blade_20.dat|
|                                   |                     (11141.2 MB/s)|
|Paraview                           |volume_flow_databladeVALIDATION_Blade_20.vtu|
|                                   |                      (1187.1 MB/s)|
|Paraview surface                   |surface_flowdatabladeVALIDATION_Blade_20.vtu|
|                                   |                     (119.237 MB/s)|
|SU2 ASCII restart                  |restart_flow_databladeVALIDATION_Blade_20.csv|
|                                   |                     (22.2982 MB/s)|
|CSV file                           |surface_flowdatabladeVALIDATION_Blade_20.csv|
|                                   |                     (22.3807 MB/s)|
+-----------------------------------------------------------------------+
+--------------------------------------+
|  Inner_Iter|    Cur_Time|    rms[Rho]|
+--------------------------------------+
|        2010|  0.0000e+00|   -5.355675|
|        2020|  0.0000e+00|   -5.323416|
|        2030|  0.0000e+00|   -5.337269|
|        2040|  0.0000e+00|   -5.336233|
|        2050|  0.0000e+00|   -5.359661|
+-----------------------------------------------------------------------+
|        File Writing Summary       |              Filename             |
+-----------------------------------------------------------------------+
|SU2 binary restart                 |restart_flow_databladeVALIDATION_Blade_20.dat|
|                                   |                     (14567.1 MB/s)|
|Paraview                           |volume_flow_databladeVALIDATION_Blade_20.vtu|
|                                   |                     (1020.81 MB/s)|
|Paraview surface                   |surface_flowdatabladeVALIDATION_Blade_20.vtu|
|                                   |                     (77.7409 MB/s)|
|SU2 ASCII restart                  |restart_flow_databladeVALIDATION_Blade_20.csv|
|                                   |                     (22.1222 MB/s)|
|CSV file                           |surface_flowdatabladeVALIDATION_Blade_20.csv|
|                                   |                     (21.9994 MB/s)|
+-----------------------------------------------------------------------+
+--------------------------------------+
|  Inner_Iter|    Cur_Time|    rms[Rho]|
+--------------------------------------+
|        2060|  0.0000e+00|   -5.387701|
|        2070|  0.0000e+00|   -5.397860|
|        2080|  0.0000e+00|   -5.410927|
|        2090|  0.0000e+00|   -5.435536|
|        2100|  0.0000e+00|   -5.468243|
+-----------------------------------------------------------------------+
|        File Writing Summary       |              Filename             |
+-----------------------------------------------------------------------+
|SU2 binary restart                 |restart_flow_databladeVALIDATION_Blade_20.dat|
|                                   |                     (13431.2 MB/s)|
|Paraview                           |volume_flow_databladeVALIDATION_Blade_20.vtu|
|                                   |                     (1160.22 MB/s)|
|Paraview surface                   |surface_flowdatabladeVALIDATION_Blade_20.vtu|
|                                   |                     (116.135 MB/s)|
|SU2 ASCII restart                  |restart_flow_databladeVALIDATION_Blade_20.csv|
|                                   |                     (21.9991 MB/s)|
|CSV file                           |surface_flowdatabladeVALIDATION_Blade_20.csv|
|                                   |                     (23.4706 MB/s)|
+-----------------------------------------------------------------------+
+--------------------------------------+
|  Inner_Iter|    Cur_Time|    rms[Rho]|
+--------------------------------------+
|        2110|  0.0000e+00|   -5.492504|
|        2120|  0.0000e+00|   -5.505601|
|        2130|  0.0000e+00|   -5.521843|
|        2140|  0.0000e+00|   -5.546410|
|        2150|  0.0000e+00|   -5.571419|
+-----------------------------------------------------------------------+
|        File Writing Summary       |              Filename             |
+-----------------------------------------------------------------------+
|SU2 binary restart                 |restart_flow_databladeVALIDATION_Blade_20.dat|
|                                   |                     (14460.3 MB/s)|
|Paraview                           |volume_flow_databladeVALIDATION_Blade_20.vtu|
|                                   |                     (1081.25 MB/s)|
|Paraview surface                   |surface_flowdatabladeVALIDATION_Blade_20.vtu|
|                                   |                     (110.704 MB/s)|
|SU2 ASCII restart                  |restart_flow_databladeVALIDATION_Blade_20.csv|
|                                   |                     (21.7969 MB/s)|
|CSV file                           |surface_flowdatabladeVALIDATION_Blade_20.csv|
|                                   |                     (21.7351 MB/s)|
+-----------------------------------------------------------------------+
+--------------------------------------+
|  Inner_Iter|    Cur_Time|    rms[Rho]|
+--------------------------------------+
|        2160|  0.0000e+00|   -5.591568|
|        2170|  0.0000e+00|   -5.611369|
|        2180|  0.0000e+00|   -5.637719|
|        2190|  0.0000e+00|   -5.662018|
|        2200|  0.0000e+00|   -5.671735|
+-----------------------------------------------------------------------+
|        File Writing Summary       |              Filename             |
+-----------------------------------------------------------------------+
|SU2 binary restart                 |restart_flow_databladeVALIDATION_Blade_20.dat|
|                                   |                     (14206.4 MB/s)|
|Paraview                           |volume_flow_databladeVALIDATION_Blade_20.vtu|
|                                   |                     (1185.96 MB/s)|
|Paraview surface                   |surface_flowdatabladeVALIDATION_Blade_20.vtu|
|                                   |                     (108.156 MB/s)|
|SU2 ASCII restart                  |restart_flow_databladeVALIDATION_Blade_20.csv|
|                                   |                     (22.0115 MB/s)|
|CSV file                           |surface_flowdatabladeVALIDATION_Blade_20.csv|
|                                   |                     (22.5522 MB/s)|
+-----------------------------------------------------------------------+
+--------------------------------------+
|  Inner_Iter|    Cur_Time|    rms[Rho]|
+--------------------------------------+
|        2210|  0.0000e+00|   -5.680277|
|        2220|  0.0000e+00|   -5.703594|
|        2230|  0.0000e+00|   -5.749879|
|        2240|  0.0000e+00|   -5.732623|
|        2250|  0.0000e+00|   -5.771196|
+-----------------------------------------------------------------------+
|        File Writing Summary       |              Filename             |
+-----------------------------------------------------------------------+
|SU2 binary restart                 |restart_flow_databladeVALIDATION_Blade_20.dat|
|                                   |                     (14031.5 MB/s)|
|Paraview                           |volume_flow_databladeVALIDATION_Blade_20.vtu|
|                                   |                     (1101.86 MB/s)|
|Paraview surface                   |surface_flowdatabladeVALIDATION_Blade_20.vtu|
|                                   |                     (107.247 MB/s)|
|SU2 ASCII restart                  |restart_flow_databladeVALIDATION_Blade_20.csv|
|                                   |                     (21.6668 MB/s)|
|CSV file                           |surface_flowdatabladeVALIDATION_Blade_20.csv|
|                                   |                     (21.5039 MB/s)|
+-----------------------------------------------------------------------+
+--------------------------------------+
|  Inner_Iter|    Cur_Time|    rms[Rho]|
+--------------------------------------+
|        2260|  0.0000e+00|   -5.763349|
|        2270|  0.0000e+00|   -5.744626|
|        2280|  0.0000e+00|   -5.757571|
|        2290|  0.0000e+00|   -5.783552|
|        2300|  0.0000e+00|   -5.754298|
+-----------------------------------------------------------------------+
|        File Writing Summary       |              Filename             |
+-----------------------------------------------------------------------+
|SU2 binary restart                 |restart_flow_databladeVALIDATION_Blade_20.dat|
|                                   |                     (13814.5 MB/s)|
|Paraview                           |volume_flow_databladeVALIDATION_Blade_20.vtu|
|                                   |                     (1210.25 MB/s)|
|Paraview surface                   |surface_flowdatabladeVALIDATION_Blade_20.vtu|
|                                   |                     (121.986 MB/s)|
|SU2 ASCII restart                  |restart_flow_databladeVALIDATION_Blade_20.csv|
|                                   |                     (21.3971 MB/s)|
|CSV file                           |surface_flowdatabladeVALIDATION_Blade_20.csv|
|                                   |                      (20.607 MB/s)|
+-----------------------------------------------------------------------+
+--------------------------------------+
|  Inner_Iter|    Cur_Time|    rms[Rho]|
+--------------------------------------+
|        2310|  0.0000e+00|   -5.768123|
|        2320|  0.0000e+00|   -5.754307|
|        2330|  0.0000e+00|   -5.809231|
|        2340|  0.0000e+00|   -5.801929|
|        2350|  0.0000e+00|   -5.781337|
+-----------------------------------------------------------------------+
|        File Writing Summary       |              Filename             |
+-----------------------------------------------------------------------+
|SU2 binary restart                 |restart_flow_databladeVALIDATION_Blade_20.dat|
|                                   |                     (14282.5 MB/s)|
|Paraview                           |volume_flow_databladeVALIDATION_Blade_20.vtu|
[...]
|        File Writing Summary       |              Filename             |
+-----------------------------------------------------------------------+
|SU2 binary restart                 |restart_flow_databladeVALIDATION_Blade_20.dat|
|                                   |                     (14322.4 MB/s)|
|Paraview                           |volume_flow_databladeVALIDATION_Blade_20.vtu|
|                                   |                     (1101.72 MB/s)|
|Paraview surface                   |surface_flowdatabladeVALIDATION_Blade_20.vtu|
|                                   |                     (107.526 MB/s)|
|SU2 ASCII restart                  |restart_flow_databladeVALIDATION_Blade_20.csv|
|                                   |                     (21.5244 MB/s)|
|CSV file                           |surface_flowdatabladeVALIDATION_Blade_20.csv|
|                                   |                     (20.5977 MB/s)|
+-----------------------------------------------------------------------+
+--------------------------------------+
|  Inner_Iter|    Cur_Time|    rms[Rho]|
+--------------------------------------+
|        3460|  0.0000e+00|   -6.545140|
|        3470|  0.0000e+00|   -6.590998|
|        3480|  0.0000e+00|   -6.592903|
|        3490|  0.0000e+00|   -6.578692|
|        3500|  0.0000e+00|   -6.605198|
+-----------------------------------------------------------------------+
|        File Writing Summary       |              Filename             |
+-----------------------------------------------------------------------+
|SU2 binary restart                 |restart_flow_databladeVALIDATION_Blade_20.dat|
|                                   |                     (14206.4 MB/s)|
|Paraview                           |volume_flow_databladeVALIDATION_Blade_20.vtu|
|                                   |                     (1341.81 MB/s)|
|Paraview surface                   |surface_flowdatabladeVALIDATION_Blade_20.vtu|
|                                   |                     (102.424 MB/s)|
|SU2 ASCII restart                  |restart_flow_databladeVALIDATION_Blade_20.csv|
|                                   |                     (22.0243 MB/s)|
|CSV file                           |surface_flowdatabladeVALIDATION_Blade_20.csv|
|                                   |                     (22.2974 MB/s)|
+-----------------------------------------------------------------------+
+--------------------------------------+
|  Inner_Iter|    Cur_Time|    rms[Rho]|
+--------------------------------------+
|        3510|  0.0000e+00|   -6.642066|
|        3520|  0.0000e+00|   -6.641406|
|        3530|  0.0000e+00|   -6.616818|
|        3540|  0.0000e+00|   -6.670079|
|        3550|  0.0000e+00|   -6.663919|
+-----------------------------------------------------------------------+
|        File Writing Summary       |              Filename             |
+-----------------------------------------------------------------------+
|SU2 binary restart                 |restart_flow_databladeVALIDATION_Blade_20.dat|
|                                   |                     (14240.6 MB/s)|
|Paraview                           |volume_flow_databladeVALIDATION_Blade_20.vtu|
|                                   |                     (1226.85 MB/s)|
|Paraview surface                   |surface_flowdatabladeVALIDATION_Blade_20.vtu|
|                                   |                     (118.098 MB/s)|
|SU2 ASCII restart                  |restart_flow_databladeVALIDATION_Blade_20.csv|
|                                   |                     (21.4491 MB/s)|
|CSV file                           |surface_flowdatabladeVALIDATION_Blade_20.csv|
|                                   |                     (22.3785 MB/s)|
+-----------------------------------------------------------------------+
+--------------------------------------+
|  Inner_Iter|    Cur_Time|    rms[Rho]|
+--------------------------------------+
|        3560|  0.0000e+00|   -6.628740|
|        3570|  0.0000e+00|   -6.661172|
|        3580|  0.0000e+00|   -6.644312|
|        3590|  0.0000e+00|   -6.659143|
|        3600|  0.0000e+00|   -6.664106|
+-----------------------------------------------------------------------+
|        File Writing Summary       |              Filename             |
+-----------------------------------------------------------------------+
|SU2 binary restart                 |restart_flow_databladeVALIDATION_Blade_20.dat|
|                                   |                     (13962.2 MB/s)|
|Paraview                           |volume_flow_databladeVALIDATION_Blade_20.vtu|
|                                   |                     (1160.89 MB/s)|
|Paraview surface                   |surface_flowdatabladeVALIDATION_Blade_20.vtu|
|                                   |                     (119.961 MB/s)|
|SU2 ASCII restart                  |restart_flow_databladeVALIDATION_Blade_20.csv|
|                                   |                     (21.7751 MB/s)|
|CSV file                           |surface_flowdatabladeVALIDATION_Blade_20.csv|
|                                   |                     (23.2056 MB/s)|
+-----------------------------------------------------------------------+
+--------------------------------------+
|  Inner_Iter|    Cur_Time|    rms[Rho]|
+--------------------------------------+
|        3610|  0.0000e+00|   -6.672044|
|        3620|  0.0000e+00|   -6.692843|
|        3630|  0.0000e+00|   -6.724460|
|        3640|  0.0000e+00|   -6.745378|
|        3650|  0.0000e+00|   -6.750484|
+-----------------------------------------------------------------------+
|        File Writing Summary       |              Filename             |
+-----------------------------------------------------------------------+
|SU2 binary restart                 |restart_flow_databladeVALIDATION_Blade_20.dat|
|                                   |                     (14438.2 MB/s)|
|Paraview                           |volume_flow_databladeVALIDATION_Blade_20.vtu|
|                                   |                     (986.167 MB/s)|
|Paraview surface                   |surface_flowdatabladeVALIDATION_Blade_20.vtu|
|                                   |                     (122.218 MB/s)|
|SU2 ASCII restart                  |restart_flow_databladeVALIDATION_Blade_20.csv|
|                                   |                     (22.1056 MB/s)|
|CSV file                           |surface_flowdatabladeVALIDATION_Blade_20.csv|
|                                   |                     (22.2262 MB/s)|
+-----------------------------------------------------------------------+
+--------------------------------------+
|  Inner_Iter|    Cur_Time|    rms[Rho]|
+--------------------------------------+
|        3660|  0.0000e+00|   -6.757226|
|        3670|  0.0000e+00|   -6.797541|
|        3680|  0.0000e+00|   -6.791653|
|        3690|  0.0000e+00|   -6.794403|
|        3700|  0.0000e+00|   -6.819969|
+-----------------------------------------------------------------------+
|        File Writing Summary       |              Filename             |
+-----------------------------------------------------------------------+
|SU2 binary restart                 |restart_flow_databladeVALIDATION_Blade_20.dat|
|                                   |                       (14247 MB/s)|
|Paraview                           |volume_flow_databladeVALIDATION_Blade_20.vtu|
|                                   |                     (1259.58 MB/s)|
|Paraview surface                   |surface_flowdatabladeVALIDATION_Blade_20.vtu|
|                                   |                      (111.66 MB/s)|
|SU2 ASCII restart                  |restart_flow_databladeVALIDATION_Blade_20.csv|
|                                   |                     (21.0123 MB/s)|
|CSV file                           |surface_flowdatabladeVALIDATION_Blade_20.csv|
|                                   |                     (20.1206 MB/s)|
+-----------------------------------------------------------------------+
+--------------------------------------+
|  Inner_Iter|    Cur_Time|    rms[Rho]|
+--------------------------------------+
|        3710|  0.0000e+00|   -6.813936|
|        3720|  0.0000e+00|   -6.796194|
|        3730|  0.0000e+00|   -6.815259|
|        3740|  0.0000e+00|   -6.812106|
|        3750|  0.0000e+00|   -6.806887|
+-----------------------------------------------------------------------+
|        File Writing Summary       |              Filename             |
+-----------------------------------------------------------------------+
|SU2 binary restart                 |restart_flow_databladeVALIDATION_Blade_20.dat|
|                                   |                     (14399.8 MB/s)|
|Paraview                           |volume_flow_databladeVALIDATION_Blade_20.vtu|
|                                   |                     (1244.83 MB/s)|
|Paraview surface                   |surface_flowdatabladeVALIDATION_Blade_20.vtu|
|                                   |                     (121.238 MB/s)|
|SU2 ASCII restart                  |restart_flow_databladeVALIDATION_Blade_20.csv|
|                                   |                     (21.5934 MB/s)|
|CSV file                           |surface_flowdatabladeVALIDATION_Blade_20.csv|
|                                   |                     (20.2568 MB/s)|
+-----------------------------------------------------------------------+
+--------------------------------------+
|  Inner_Iter|    Cur_Time|    rms[Rho]|
+--------------------------------------+
|        3760|  0.0000e+00|   -6.833484|
|        3770|  0.0000e+00|   -6.850220|
|        3780|  0.0000e+00|   -6.854753|
|        3790|  0.0000e+00|   -6.848268|
|        3800|  0.0000e+00|   -6.874622|
+-----------------------------------------------------------------------+
|        File Writing Summary       |              Filename             |
+-----------------------------------------------------------------------+
|SU2 binary restart                 |restart_flow_databladeVALIDATION_Blade_20.dat|
|                                   |                     (5479.64 MB/s)|
|Paraview                           |volume_flow_databladeVALIDATION_Blade_20.vtu|
|                                   |                     (1200.03 MB/s)|
|Paraview surface                   |surface_flowdatabladeVALIDATION_Blade_20.vtu|
|                                   |                     (115.892 MB/s)|
|SU2 ASCII restart                  |restart_flow_databladeVALIDATION_Blade_20.csv|
|                                   |                      (21.674 MB/s)|
|CSV file                           |surface_flowdatabladeVALIDATION_Blade_20.csv|
|                                   |                     (19.6926 MB/s)|
+-----------------------------------------------------------------------+
+--------------------------------------+
|  Inner_Iter|    Cur_Time|    rms[Rho]|
+--------------------------------------+
|        3810|  0.0000e+00|   -6.871513|
|        3820|  0.0000e+00|   -6.858180|
|        3830|  0.0000e+00|   -6.853729|
|        3840|  0.0000e+00|   -6.873562|
|        3850|  0.0000e+00|   -6.853658|
+-----------------------------------------------------------------------+
|        File Writing Summary       |              Filename             |
+-----------------------------------------------------------------------+
|SU2 binary restart                 |restart_flow_databladeVALIDATION_Blade_20.dat|
|                                   |                     (14258.8 MB/s)|
|Paraview                           |volume_flow_databladeVALIDATION_Blade_20.vtu|
|                                   |                     (1225.12 MB/s)|
|Paraview surface                   |surface_flowdatabladeVALIDATION_Blade_20.vtu|
|                                   |                     (152.295 MB/s)|
|SU2 ASCII restart                  |restart_flow_databladeVALIDATION_Blade_20.csv|
|                                   |                     (22.4657 MB/s)|
|CSV file                           |surface_flowdatabladeVALIDATION_Blade_20.csv|
|                                   |                     (21.8744 MB/s)|
+-----------------------------------------------------------------------+
+--------------------------------------+
|  Inner_Iter|    Cur_Time|    rms[Rho]|
+--------------------------------------+
|        3860|  0.0000e+00|   -6.875337|
|        3870|  0.0000e+00|   -6.886893|
|        3880|  0.0000e+00|   -6.877820|
|        3890|  0.0000e+00|   -6.858909|
|        3900|  0.0000e+00|   -6.889824|
+-----------------------------------------------------------------------+
|        File Writing Summary       |              Filename             |
+-----------------------------------------------------------------------+
|SU2 binary restart                 |restart_flow_databladeVALIDATION_Blade_20.dat|
|                                   |                     (14514.6 MB/s)|
|Paraview                           |volume_flow_databladeVALIDATION_Blade_20.vtu|
|                                   |                     (1232.82 MB/s)|
|Paraview surface                   |surface_flowdatabladeVALIDATION_Blade_20.vtu|
|                                   |                     (120.159 MB/s)|
|SU2 ASCII restart                  |restart_flow_databladeVALIDATION_Blade_20.csv|
|                                   |                     (21.8921 MB/s)|
|CSV file                           |surface_flowdatabladeVALIDATION_Blade_20.csv|
|                                   |                     (22.2781 MB/s)|
+-----------------------------------------------------------------------+
+--------------------------------------+
|  Inner_Iter|    Cur_Time|    rms[Rho]|
+--------------------------------------+
|        3910|  0.0000e+00|   -6.885806|
|        3920|  0.0000e+00|   -6.871163|
|        3930|  0.0000e+00|   -6.899333|
|        3940|  0.0000e+00|   -6.900559|
|        3950|  0.0000e+00|   -6.910818|
+-----------------------------------------------------------------------+
|        File Writing Summary       |              Filename             |
+-----------------------------------------------------------------------+
|SU2 binary restart                 |restart_flow_databladeVALIDATION_Blade_20.dat|
|                                   |                     (12188.5 MB/s)|
|Paraview                           |volume_flow_databladeVALIDATION_Blade_20.vtu|
|                                   |                     (1040.87 MB/s)|
|Paraview surface                   |surface_flowdatabladeVALIDATION_Blade_20.vtu|
|                                   |                     (107.276 MB/s)|
|SU2 ASCII restart                  |restart_flow_databladeVALIDATION_Blade_20.csv|
|                                   |                     (21.7508 MB/s)|
|CSV file                           |surface_flowdatabladeVALIDATION_Blade_20.csv|
|                                   |                     (20.4037 MB/s)|
+-----------------------------------------------------------------------+
+--------------------------------------+
|  Inner_Iter|    Cur_Time|    rms[Rho]|
+--------------------------------------+
|        3960|  0.0000e+00|   -6.908684|
|        3970|  0.0000e+00|   -6.915288|
|        3980|  0.0000e+00|   -6.929190|
|        3990|  0.0000e+00|   -6.935739|
|        4000|  0.0000e+00|   -6.937619|
+-----------------------------------------------------------------------+
|        File Writing Summary       |              Filename             |
+-----------------------------------------------------------------------+
|SU2 binary restart                 |restart_flow_databladeVALIDATION_Blade_20.dat|
|                                   |                     (14135.3 MB/s)|
|Paraview                           |volume_flow_databladeVALIDATION_Blade_20.vtu|
|                                   |                     (1181.57 MB/s)|
|Paraview surface                   |surface_flowdatabladeVALIDATION_Blade_20.vtu|
|                                   |                     (119.717 MB/s)|
|SU2 ASCII restart                  |restart_flow_databladeVALIDATION_Blade_20.csv|
|                                   |                     (21.7272 MB/s)|
|CSV file                           |surface_flowdatabladeVALIDATION_Blade_20.csv|
|                                   |                     (20.6995 MB/s)|
+-----------------------------------------------------------------------+
+--------------------------------------+
|  Inner_Iter|    Cur_Time|    rms[Rho]|
+--------------------------------------+
|        4010|  0.0000e+00|   -6.950899|
|        4020|  0.0000e+00|   -6.978621|
|        4025|  0.0000e+00|   -7.000136|

----------------------------- Solver Exit -------------------------------
All convergence criteria satisfied.
+-----------------------------------------------------------------------+
|      Convergence Field     |     Value    |   Criterion  |  Converged |
+-----------------------------------------------------------------------+
|                    rms[Rho]|      -7.00014|          < -7|         Yes|
+-----------------------------------------------------------------------+
-------------------------------------------------------------------------
+-----------------------------------------------------------------------+
|        File Writing Summary       |              Filename             |
+-----------------------------------------------------------------------+
|SU2 binary restart                 |restart_flow_databladeVALIDATION_Blade_20.dat|
|                                   |                     (5714.71 MB/s)|
|Paraview                           |volume_flow_databladeVALIDATION_Blade_20.vtu|
|                                   |                     (1196.05 MB/s)|
|Paraview surface                   |surface_flowdatabladeVALIDATION_Blade_20.vtu|
|                                   |                       (121.6 MB/s)|
|SU2 ASCII restart                  |restart_flow_databladeVALIDATION_Blade_20.csv|
|                                   |                     (22.1103 MB/s)|
|CSV file                           |surface_flowdatabladeVALIDATION_Blade_20.csv|
|                                   |                     (21.0061 MB/s)|
+-----------------------------------------------------------------------+

--------------------------- Finalizing Solver ---------------------------
Deleted CNumerics container.
Deleted CIntegration container.
Deleted CSolver container.
Deleted CIteration container.
Deleted CInterface container.
Deleted CGeometry container.
Deleted CFreeFormDefBox class.
Deleted CSurfaceMovement class.
Deleted CVolumetricMovement class.
Deleted CConfig container.
Deleted nInst container.
Deleted COutput class.
-------------------------------------------------------------------------


-------------------------- Performance Summary --------------------------
Simulation totals:
   Wall-clock time (hrs):    0.143549 |            Core-hrs:     1.72259
                   Cores:          12 |          DOFs/point:           5
             Points/core:     5971.17 |   Ghost points/core:     155.083
 Ghost/Owned Point Ratio:    0.025972 | 

Preprocessing phase:
       Preproc. Time (s):    0.492516 |   Preproc. Time (%):   0.0953052

Compute phase:
        Compute Time (s):     513.674 |    Compute Time (%):     99.3995
         Iteration count:        4026 |         Avg. s/iter:    0.127589
     Core-s/iter/Mpoints:     20.8266 |           Mpoints/s:    0.576185

Output phase:
         Output Time (s):     2.61091 |     Output Time (%):    0.505229
            Output count:           1 |       Avg. s/output:     2.61091
 Restart Aggr. BW (MB/s): 1.11867e+06 |           MB/s/core:     93222.9
-------------------------------------------------------------------------


------------------------- Exit Success (SU2_CFD) ------------------------

