
-------------------------------------------------------------------------
|    ___ _   _ ___                                                      |
|   / __| | | |_  )   Release 8.0.1 "Harrier"                           |
|   \__ \ |_| |/ /                                                      |
|   |___/\___//___|   Suite (Computational Fluid Dynamics Code)         |
|                                                                       |
-------------------------------------------------------------------------
| SU2 Project Website: https://su2code.github.io                        |
|                                                                       |
| The SU2 Project is maintained by the SU2 Foundation                   |
| (http://su2foundation.org)                                            |
-------------------------------------------------------------------------
| Copyright 2012-2024, SU2 Contributors                                 |
|                                                                       |
| SU2 is free software; you can redistribute it and/or                  |
| modify it under the terms of the GNU Lesser General Public            |
| License as published by the Free Software Foundation; either          |
| version 2.1 of the License, or (at your option) any later version.    |
|                                                                       |
| SU2 is distributed in the hope that it will be useful,                |
| but WITHOUT ANY WARRANTY; without even the implied warranty of        |
| MERCHANTABILITY or FITNESS FOR A PARTICULAR PURPOSE. See the GNU      |
| Lesser General Public License for more details.                       |
|                                                                       |
| You should have received a copy of the GNU Lesser General Public      |
| License along with SU2. If not, see <http://www.gnu.org/licenses/>.   |
-------------------------------------------------------------------------

Parsing config file for zone 0

----------------- Physical Case Definition ( Zone 0 ) -------------------
Compressible RANS equations.
Turbulence model: Spalart-Allmaras-noft2-BCM
Hybrid RANS/LES: No Hybrid RANS/LES
Mach number: 0.6.
Angle of attack (AoA): -40 deg, and angle of sideslip (AoS): 0 deg.
Reynolds number: 600000. Reference length 1.00144.
No restart solution, use the values at infinity (freestream).
Dimensional simulation.
The reference area will be computed using y(2D) or z(3D) projection.
The semi-span will be computed using the max y(3D) value.
The reference length is 1.00144 m.
Reference origin for moment evaluation is (0, 0, 0).
Surface(s) where the force coefficients are evaluated: blade1.

Surface(s) plotted in the output file: blade1.
Surface(s) to be analyzed in detail: inlet, outlet, blade1.
Input mesh file name: cascade2D_databladeVALIDATION_Blade_5.su2

--------------- Space Numerical Integration ( Zone 0 ) ------------------
Jameson-Schmidt-Turkel scheme (2nd order in space) for the flow inviscid terms.
JST viscous coefficients (2nd & 4th): 0.5, 0.02.
The method includes a grid stretching correction (p = 0.3).
Scalar upwind solver for the turbulence model.
First order integration in space.
Average of gradients with correction (viscous flow terms).
Average of gradients with correction (viscous turbulence terms).
Gradient for upwind reconstruction: inverse-distance weighted Least-Squares.
Gradient for viscous and source terms: inverse-distance weighted Least-Squares.

--------------- Time Numerical Integration  ( Zone 0 ) ------------------
Local time stepping (steady state simulation).
Euler implicit method for the flow equations.
FGMRES is used for solving the linear system.
Using a LU-SGS preconditioning.
Convergence criteria of the linear solver: 0.0001.
Max number of linear iterations: 10.
V Multigrid Cycle, with 3 multigrid levels.
Damping factor for the residual restriction: 0.75.
Damping factor for the correction prolongation: 0.75.
CFL adaptation. Factor down: 0.1, factor up: 1.2,
                lower limit: 0.1, upper limit: 100,
                acceptable linear residual: 0.001.
+-------------------------------------------+
|  MG Level| Presmooth|PostSmooth|CorrectSmo|
+-------------------------------------------+
|         0|         1|         0|         1|
|         1|         2|         2|         2|
|         2|         3|         3|         3|
|         3|         3|         0|         0|
+-------------------------------------------+
Courant-Friedrichs-Lewy number:       12
Euler implicit time integration for the turbulence model.

------------------ Convergence Criteria  ( Zone 0 ) ---------------------
Maximum number of solver subiterations: 7000.
Begin convergence monitoring at iteration 500.
Residual minimum value: 1e-7.
Cauchy series min. value: 1e-10.
Number of Cauchy elements: 100.
Begin windowed time average at iteration 0.

-------------------- Output Information ( Zone 0 ) ----------------------
File writing frequency: 
+------------------------------------+
|                     File| Frequency|
+------------------------------------+
|                  RESTART|        50|
|                 PARAVIEW|        50|
|         SURFACE_PARAVIEW|        50|
|                      CSV|        50|
|              SURFACE_CSV|        50|
+------------------------------------+
Writing the convergence history file every 1 inner iterations.
Writing the screen convergence history every 10 inner iterations.
The tabular file format is CSV (.csv).
Convergence history file name: history_databladeVALIDATION_Blade_5.
Forces breakdown file name: forces_breakdown.dat.
Surface file name: surface_flowdatabladeVALIDATION_Blade_5.
Volume file name: volume_flow_databladeVALIDATION_Blade_5.
Restart file name: restart_flow_databladeVALIDATION_Blade_5.dat.

------------- Config File Boundary Information ( Zone 0 ) ---------------
+-----------------------------------------------------------------------+
|                        Marker Type|                        Marker Name|
+-----------------------------------------------------------------------+
|                  Periodic boundary|               symmetricWallsBOTTOM|
|                                   |                  symmetricWallsTOP|
+-----------------------------------------------------------------------+
|                     Inlet boundary|                              inlet|
+-----------------------------------------------------------------------+
|                    Outlet boundary|                             outlet|
+-----------------------------------------------------------------------+
|                     Heat flux wall|                             blade1|
|                                   |                             blade2|
+-----------------------------------------------------------------------+

-------------------- Output Preprocessing ( Zone 0 ) --------------------
  Info: Ignoring the following screen output fields:
  LINSOL_ITER_TRANS, LINSOL_RESIDUAL_TRANS
Screen output fields: INNER_ITER, WALL_TIME, RMS_DENSITY
  Info: Ignoring the following history output groups:
  RMS_TKE, RMS_DISSIPATION
History output group(s): INNER_ITER, WALL_TIME, RMS_DENSITY, RMS_MOMENTUM-X, RMS_ENERGY, LINSOL, CFL_NUMBER, FLOW_COEFF_SURF, AERO_COEFF_SURF
Convergence field(s): RMS_DENSITY
Warning: No (valid) fields chosen for time convergence monitoring. Time convergence monitoring inactive.
Volume output fields: COORDINATES, SOLUTION, PRIMITIVE, RESIDUAL, TIMESTEP, MESH_QUALITY, VORTEX_IDENTIFICATION

------------------- Geometry Preprocessing ( Zone 0 ) -------------------
Two dimensional problem.
60030 grid points before partitioning.
89700 volume elements before partitioning.
5 surface markers.
26 boundary elements in index 0 (Marker = inlet).
329 boundary elements in index 1 (Marker = symmetricWallsBOTTOM).
329 boundary elements in index 2 (Marker = symmetricWallsTOP).
26 boundary elements in index 3 (Marker = outlet).
1186 boundary elements in index 4 (Marker = blade1).
Executing the partitioning functions.
Building the graph adjacency structure.
Calling ParMETIS... graph partitioning complete (1421 edge cuts).
Distributing ParMETIS coloring.
Rebalancing vertices.
Rebalancing volume element connectivity.
Rebalancing markers and surface elements.
61822 vertices including ghost points. 
91111 interior elements including halo cells. 
62290 triangles.
28821 quadrilaterals.
Establishing MPI communication patterns.
Setting point connectivity.
Renumbering points (Reverse Cuthill McKee Ordering).
Recomputing point connectivity.
Setting element connectivity.
Checking the numerical grid orientation.
All volume elements are correctly orientend.
There has been a re-orientation of 958 LINE surface elements.
Identifying edges and vertices.
Setting the control volume structure.
Area of the computational grid: 3.37481.
Searching for the closest normal neighbors to the surfaces.
Storing a mapping from global to local point index.
Compute the surface curvature.
Max K: 134.12. Mean K: 4.12541. Standard deviation K: 14.0552.
Checking for periodicity.
WARNING: Periodicity has been detected. Disabling multigrid. 
Computing mesh quality statistics for the dual control volumes.
+--------------------------------------------------------------+
|           Mesh Quality Metric|        Minimum|        Maximum|
+--------------------------------------------------------------+
|    Orthogonality Angle (deg.)|         46.085|             90|
|     CV Face Area Aspect Ratio|        1.00015|        291.783|
|           CV Sub-Volume Ratio|              1|        26.4979|
+--------------------------------------------------------------+
Finding max control volume width.
Communicating number of neighbors.
Reference length = 1.02121 m.
Wetted area = 2.95395 m.
Area projection in the x-plane = 0.900234 m, y-plane = 1.02121 m.
Max. coordinate in the x-direction = 1.01341 m, y-direction = 0.591606 m.
Min. coordinate in the x-direction = -0.00781428 m, y-direction = -0.296309 m.
Matching the periodic boundary points for marker pair 1.
 Matched 660 points with a max distance of: 1.12415e-13.
Computing wall distances.

-------------------- Solver Preprocessing ( Zone 0 ) --------------------
Viscous flow: Computing pressure using the ideal gas law
based on the free-stream temperature and a density computed
from the Reynolds number.
Force coefficients computed using free-stream values.

-- Models:
+------------------------------------------------------------------------------+
|          Viscosity Model|        Conductivity Model|              Fluid Model|
+------------------------------------------------------------------------------+
|               SUTHERLAND|          CONSTANT_PRANDTL|                IDEAL_GAS|
+------------------------------------------------------------------------------+
-- Fluid properties:
+------------------------------------------------------------------------------+
|                  Name|    Dim. value|    Ref. value|      Unit|Non-dim. value|
+------------------------------------------------------------------------------+
|        Ref. Viscosity|     1.716e-05|             1|   N.s/m^2|     1.716e-05|
|      Sutherland Temp.|        273.15|             1|         K|        273.15|
|     Sutherland Const.|         110.4|             1|         K|         110.4|
+------------------------------------------------------------------------------+
|        Prandtl (Lam.)|             -|             -|         -|          0.72|
|       Prandtl (Turb.)|             -|             -|         -|           0.9|
+------------------------------------------------------------------------------+
|          Gas Constant|       287.058|             1|  N.m/kg.K|       287.058|
|      Spec. Heat Ratio|             -|             -|         -|           1.4|
+------------------------------------------------------------------------------+
-- Initial and free-stream conditions:
+------------------------------------------------------------------------------+
|                  Name|    Dim. value|    Ref. value|      Unit|Non-dim. value|
+------------------------------------------------------------------------------+
|       Static Pressure|       4571.62|             1|        Pa|       4571.62|
|               Density|     0.0530859|             1|    kg/m^3|     0.0530859|
|           Temperature|           300|             1|         K|           300|
|          Total Energy|        236995|             1|   m^2/s^2|        236995|
|            Velocity-X|       159.593|             1|       m/s|       159.593|
|            Velocity-Y|      -133.915|             1|       m/s|      -133.915|
|    Velocity Magnitude|       208.334|             1|       m/s|       208.334|
+------------------------------------------------------------------------------+
|             Viscosity|   1.84592e-05|             1|   N.s/m^2|   1.84592e-05|
|          Conductivity|             -|             1|   W/m^2.K|             -|
|     Turb. Kin. Energy|       79.7533|             1|   m^2/s^2|       79.7533|
|     Spec. Dissipation|   2.29359e+06|             1|       1/s|   2.29359e+06|
+------------------------------------------------------------------------------+
|           Mach Number|             -|             -|         -|           0.6|
|       Reynolds Number|             -|             -|         -|        600000|
+------------------------------------------------------------------------------+
Initialize Jacobian structure (Navier-Stokes). MG level: 0.
Initialize Jacobian structure (SA model).

------------------- Numerics Preprocessing ( Zone 0 ) -------------------

----------------- Integration Preprocessing ( Zone 0 ) ------------------

------------------- Iteration Preprocessing ( Zone 0 ) ------------------
Euler/Navier-Stokes/RANS fluid iteration.

------------------------------ Begin Solver -----------------------------

Simulation Run using the Single-zone Driver
WARNING: SU2 was not compiled for an AVX-capable architecture. Performance could be better,
         see https://su2code.github.io/docs_v7/Build-SU2-Linux-MacOS/#compiler-optimizations
+--------------------------------------+
|  Inner_Iter|   Time(sec)|    rms[Rho]|
+--------------------------------------+
|           0|  8.3504e-02|   -2.470288|
|          10|  7.3627e-02|   -3.116955|
|          20|  7.6819e-02|   -2.913387|
|          30|  7.5112e-02|   -2.941989|
|          40|  7.4213e-02|   -2.867145|
|          50|  7.5333e-02|   -2.811624|
+-----------------------------------------------------------------------+
|        File Writing Summary       |              Filename             |
+-----------------------------------------------------------------------+
|SU2 binary restart                 |restart_flow_databladeVALIDATION_Blade_5.dat|
|                                   |                     (10765.1 MB/s)|
|Paraview                           |volume_flow_databladeVALIDATION_Blade_5.vtu|
|                                   |                       (798.6 MB/s)|
|Paraview surface                   |surface_flowdatabladeVALIDATION_Blade_5.vtu|
|                                   |                     (85.9364 MB/s)|
|SU2 ASCII restart                  |restart_flow_databladeVALIDATION_Blade_5.csv|
|                                   |                     (21.1669 MB/s)|
|CSV file                           |surface_flowdatabladeVALIDATION_Blade_5.csv|
|                                   |                     (20.2079 MB/s)|
+-----------------------------------------------------------------------+
+--------------------------------------+
|  Inner_Iter|   Time(sec)|    rms[Rho]|
+--------------------------------------+
|          60|  1.1433e-01|   -2.981281|
|          70|  1.0766e-01|   -3.061812|
|          80|  1.0309e-01|   -3.021511|
|          90|  1.0118e-01|   -2.895576|
|         100|  9.9116e-02|   -2.972862|
+-----------------------------------------------------------------------+
|        File Writing Summary       |              Filename             |
+-----------------------------------------------------------------------+
|SU2 binary restart                 |restart_flow_databladeVALIDATION_Blade_5.dat|
|                                   |                     (11960.8 MB/s)|
|Paraview                           |volume_flow_databladeVALIDATION_Blade_5.vtu|
|                                   |                     (750.499 MB/s)|
|Paraview surface                   |surface_flowdatabladeVALIDATION_Blade_5.vtu|
|                                   |                      (79.777 MB/s)|
|SU2 ASCII restart                  |restart_flow_databladeVALIDATION_Blade_5.csv|
|                                   |                      (21.283 MB/s)|
|CSV file                           |surface_flowdatabladeVALIDATION_Blade_5.csv|
|                                   |                     (20.3368 MB/s)|
+-----------------------------------------------------------------------+
+--------------------------------------+
|  Inner_Iter|   Time(sec)|    rms[Rho]|
+--------------------------------------+
|         110|  1.1776e-01|   -2.998805|
|         120|  1.1511e-01|   -2.825108|
|         130|  1.1198e-01|   -2.981039|
|         140|  1.0869e-01|   -3.092723|
|         150|  1.0641e-01|   -3.100167|
+-----------------------------------------------------------------------+
|        File Writing Summary       |              Filename             |
+-----------------------------------------------------------------------+
|SU2 binary restart                 |restart_flow_databladeVALIDATION_Blade_5.dat|
|                                   |                     (11723.9 MB/s)|
|Paraview                           |volume_flow_databladeVALIDATION_Blade_5.vtu|
|                                   |                     (994.076 MB/s)|
|Paraview surface                   |surface_flowdatabladeVALIDATION_Blade_5.vtu|
|                                   |                     (95.8478 MB/s)|
|SU2 ASCII restart                  |restart_flow_databladeVALIDATION_Blade_5.csv|
|                                   |                     (20.8918 MB/s)|
|CSV file                           |surface_flowdatabladeVALIDATION_Blade_5.csv|
|                                   |                     (18.4522 MB/s)|
+-----------------------------------------------------------------------+
+--------------------------------------+
|  Inner_Iter|   Time(sec)|    rms[Rho]|
+--------------------------------------+
|         160|  1.2044e-01|   -3.135611|
|         170|  1.2058e-01|   -3.170530|
|         180|  1.1959e-01|   -3.199855|
|         190|  1.2000e-01|   -3.109374|
|         200|  1.1835e-01|   -3.179045|
+-----------------------------------------------------------------------+
|        File Writing Summary       |              Filename             |
+-----------------------------------------------------------------------+
|SU2 binary restart                 |restart_flow_databladeVALIDATION_Blade_5.dat|
|                                   |                      (8701.1 MB/s)|
|Paraview                           |volume_flow_databladeVALIDATION_Blade_5.vtu|
|                                   |                     (734.451 MB/s)|
|Paraview surface                   |surface_flowdatabladeVALIDATION_Blade_5.vtu|
|                                   |                     (82.3381 MB/s)|
|SU2 ASCII restart                  |restart_flow_databladeVALIDATION_Blade_5.csv|
|                                   |                     (20.4454 MB/s)|
|CSV file                           |surface_flowdatabladeVALIDATION_Blade_5.csv|
|                                   |                     (18.0284 MB/s)|
+-----------------------------------------------------------------------+
+--------------------------------------+
|  Inner_Iter|   Time(sec)|    rms[Rho]|
+--------------------------------------+
|         210|  1.2842e-01|   -3.234222|
|         220|  1.2702e-01|   -3.233559|
|         230|  1.2543e-01|   -3.175983|
|         240|  1.2324e-01|   -3.280467|
|         250|  1.2119e-01|   -3.323348|
+-----------------------------------------------------------------------+
|        File Writing Summary       |              Filename             |
+-----------------------------------------------------------------------+
|SU2 binary restart                 |restart_flow_databladeVALIDATION_Blade_5.dat|
|                                   |                     (12055.4 MB/s)|
|Paraview                           |volume_flow_databladeVALIDATION_Blade_5.vtu|
|                                   |                     (963.395 MB/s)|
|Paraview surface                   |surface_flowdatabladeVALIDATION_Blade_5.vtu|
|                                   |                     (91.9369 MB/s)|
|SU2 ASCII restart                  |restart_flow_databladeVALIDATION_Blade_5.csv|
|                                   |                     (21.3092 MB/s)|
|CSV file                           |surface_flowdatabladeVALIDATION_Blade_5.csv|
|                                   |                     (20.3408 MB/s)|
+-----------------------------------------------------------------------+
+--------------------------------------+
|  Inner_Iter|   Time(sec)|    rms[Rho]|
+--------------------------------------+
|         260|  1.2832e-01|   -3.175887|
|         270|  1.2652e-01|   -3.270200|
|         280|  1.2447e-01|   -3.404300|
|         290|  1.2268e-01|   -3.359670|
|         300|  1.2113e-01|   -3.329447|
+-----------------------------------------------------------------------+
|        File Writing Summary       |              Filename             |
+-----------------------------------------------------------------------+
|SU2 binary restart                 |restart_flow_databladeVALIDATION_Blade_5.dat|
|                                   |                     (10653.7 MB/s)|
|Paraview                           |volume_flow_databladeVALIDATION_Blade_5.vtu|
|                                   |                     (914.051 MB/s)|
|Paraview surface                   |surface_flowdatabladeVALIDATION_Blade_5.vtu|
|                                   |                      (90.474 MB/s)|
|SU2 ASCII restart                  |restart_flow_databladeVALIDATION_Blade_5.csv|
|                                   |                      (21.186 MB/s)|
|CSV file                           |surface_flowdatabladeVALIDATION_Blade_5.csv|
|                                   |                     (18.6298 MB/s)|
+-----------------------------------------------------------------------+
+--------------------------------------+
|  Inner_Iter|   Time(sec)|    rms[Rho]|
+--------------------------------------+
|         310|  1.2735e-01|   -3.326327|
|         320|  1.2557e-01|   -3.341320|
|         330|  1.2406e-01|   -3.370907|
|         340|  1.2286e-01|   -3.347827|
|         350|  1.2173e-01|   -3.439153|
+-----------------------------------------------------------------------+
|        File Writing Summary       |              Filename             |
+-----------------------------------------------------------------------+
|SU2 binary restart                 |restart_flow_databladeVALIDATION_Blade_5.dat|
|                                   |                     (11780.5 MB/s)|
|Paraview                           |volume_flow_databladeVALIDATION_Blade_5.vtu|
|                                   |                     (918.322 MB/s)|
|Paraview surface                   |surface_flowdatabladeVALIDATION_Blade_5.vtu|
|                                   |                     (92.5972 MB/s)|
|SU2 ASCII restart                  |restart_flow_databladeVALIDATION_Blade_5.csv|
|                                   |                     (21.4912 MB/s)|
|CSV file                           |surface_flowdatabladeVALIDATION_Blade_5.csv|
|                                   |                     (19.0614 MB/s)|
+-----------------------------------------------------------------------+
+--------------------------------------+
|  Inner_Iter|   Time(sec)|    rms[Rho]|
+--------------------------------------+
|         360|  1.2655e-01|   -3.538716|
|         370|  1.2545e-01|   -3.393904|
|         380|  1.2459e-01|   -3.481810|
|         390|  1.2346e-01|   -3.568895|
|         400|  1.2243e-01|   -3.483810|
+-----------------------------------------------------------------------+
|        File Writing Summary       |              Filename             |
+-----------------------------------------------------------------------+
|SU2 binary restart                 |restart_flow_databladeVALIDATION_Blade_5.dat|
|                                   |                     (11077.1 MB/s)|
|Paraview                           |volume_flow_databladeVALIDATION_Blade_5.vtu|
|                                   |                     (958.287 MB/s)|
|Paraview surface                   |surface_flowdatabladeVALIDATION_Blade_5.vtu|
|                                   |                     (73.6703 MB/s)|
|SU2 ASCII restart                  |restart_flow_databladeVALIDATION_Blade_5.csv|
|                                   |                     (21.3099 MB/s)|
|CSV file                           |surface_flowdatabladeVALIDATION_Blade_5.csv|
|                                   |                     (19.9301 MB/s)|
+-----------------------------------------------------------------------+
+--------------------------------------+
|  Inner_Iter|   Time(sec)|    rms[Rho]|
+--------------------------------------+
|         410|  1.2730e-01|   -3.402842|
|         420|  1.2622e-01|   -3.631630|
|         430|  1.2515e-01|   -3.505907|
|         440|  1.2421e-01|   -3.462263|
|         450|  1.2315e-01|   -3.610066|
+-----------------------------------------------------------------------+
|        File Writing Summary       |              Filename             |
+-----------------------------------------------------------------------+
|SU2 binary restart                 |restart_flow_databladeVALIDATION_Blade_5.dat|
|                                   |                     (12049.9 MB/s)|
|Paraview                           |volume_flow_databladeVALIDATION_Blade_5.vtu|
|                                   |                     (911.384 MB/s)|
|Paraview surface                   |surface_flowdatabladeVALIDATION_Blade_5.vtu|
|                                   |                     (94.5658 MB/s)|
|SU2 ASCII restart                  |restart_flow_databladeVALIDATION_Blade_5.csv|
|                                   |                     (20.9729 MB/s)|
|CSV file                           |surface_flowdatabladeVALIDATION_Blade_5.csv|
|                                   |                      (19.874 MB/s)|
+-----------------------------------------------------------------------+
+--------------------------------------+
|  Inner_Iter|   Time(sec)|    rms[Rho]|
+--------------------------------------+
|         460|  1.2720e-01|   -3.525030|
|         470|  1.2621e-01|   -3.449125|
|         480|  1.2536e-01|   -3.538130|
|         490|  1.2418e-01|   -3.650902|
|         500|  1.2298e-01|   -3.421670|
+-----------------------------------------------------------------------+
|        File Writing Summary       |              Filename             |
+-----------------------------------------------------------------------+
|SU2 binary restart                 |restart_flow_databladeVALIDATION_Blade_5.dat|
|                                   |                     (13626.5 MB/s)|
|Paraview                           |volume_flow_databladeVALIDATION_Blade_5.vtu|
|                                   |                     (951.145 MB/s)|
|Paraview surface                   |surface_flowdatabladeVALIDATION_Blade_5.vtu|
|                                   |                     (91.9298 MB/s)|
|SU2 ASCII restart                  |restart_flow_databladeVALIDATION_Blade_5.csv|
|                                   |                     (21.5855 MB/s)|
|CSV file                           |surface_flowdatabladeVALIDATION_Blade_5.csv|
|                                   |                     (22.0349 MB/s)|
+-----------------------------------------------------------------------+
+--------------------------------------+
|  Inner_Iter|   Time(sec)|    rms[Rho]|
+--------------------------------------+
|         510|  1.2632e-01|   -3.426762|
|         520|  1.2503e-01|   -3.596712|
|         530|  1.2411e-01|   -3.604724|
|         540|  1.2397e-01|   -3.401057|
|         550|  1.2302e-01|   -3.517720|
+-----------------------------------------------------------------------+
|        File Writing Summary       |              Filename             |
+-----------------------------------------------------------------------+
|SU2 binary restart                 |restart_flow_databladeVALIDATION_Blade_5.dat|
|                                   |                     (11898.9 MB/s)|
|Paraview                           |volume_flow_databladeVALIDATION_Blade_5.vtu|
|                                   |                     (1006.99 MB/s)|
|Paraview surface                   |surface_flowdatabladeVALIDATION_Blade_5.vtu|
|                                   |                     (100.881 MB/s)|
|SU2 ASCII restart                  |restart_flow_databladeVALIDATION_Blade_5.csv|
|                                   |                     (21.7919 MB/s)|
|CSV file                           |surface_flowdatabladeVALIDATION_Blade_5.csv|
|                                   |                     (19.8688 MB/s)|
+-----------------------------------------------------------------------+
+--------------------------------------+
|  Inner_Iter|   Time(sec)|    rms[Rho]|
+--------------------------------------+
|         560|  1.2578e-01|   -3.591660|
|         570|  1.2493e-01|   -3.426559|
|         580|  1.2385e-01|   -3.646882|
|         590|  1.2276e-01|   -3.642453|
|         600|  1.2187e-01|   -3.491511|
+-----------------------------------------------------------------------+
|        File Writing Summary       |              Filename             |
+-----------------------------------------------------------------------+
|SU2 binary restart                 |restart_flow_databladeVALIDATION_Blade_5.dat|
|                                   |                     (13251.9 MB/s)|
|Paraview                           |volume_flow_databladeVALIDATION_Blade_5.vtu|
|                                   |                     (1046.68 MB/s)|
|Paraview surface                   |surface_flowdatabladeVALIDATION_Blade_5.vtu|
|                                   |                     (94.0934 MB/s)|
|SU2 ASCII restart                  |restart_flow_databladeVALIDATION_Blade_5.csv|
|                                   |                     (22.0849 MB/s)|
|CSV file                           |surface_flowdatabladeVALIDATION_Blade_5.csv|
|                                   |                     (21.5526 MB/s)|
+-----------------------------------------------------------------------+
+--------------------------------------+
|  Inner_Iter|   Time(sec)|    rms[Rho]|
+--------------------------------------+
|         610|  1.2452e-01|   -3.619881|
|         620|  1.2347e-01|   -3.680384|
|         630|  1.2251e-01|   -3.609500|
|         640|  1.2171e-01|   -3.584367|
|         650|  1.2073e-01|   -3.801678|
+-----------------------------------------------------------------------+
|        File Writing Summary       |              Filename             |
+-----------------------------------------------------------------------+
|SU2 binary restart                 |restart_flow_databladeVALIDATION_Blade_5.dat|
|                                   |                     (12717.5 MB/s)|
|Paraview                           |volume_flow_databladeVALIDATION_Blade_5.vtu|
|                                   |                     (1103.47 MB/s)|
|Paraview surface                   |surface_flowdatabladeVALIDATION_Blade_5.vtu|
|                                   |                     (103.836 MB/s)|
|SU2 ASCII restart                  |restart_flow_databladeVALIDATION_Blade_5.csv|
|                                   |                     (21.7268 MB/s)|
|CSV file                           |surface_flowdatabladeVALIDATION_Blade_5.csv|
|                                   |                     (19.3424 MB/s)|
+-----------------------------------------------------------------------+
+--------------------------------------+
|  Inner_Iter|   Time(sec)|    rms[Rho]|
+--------------------------------------+
|         660|  1.2341e-01|   -3.770295|
|         670|  1.2265e-01|   -3.608266|
|         680|  1.2195e-01|   -3.777462|
|         690|  1.2126e-01|   -3.826093|
|         700|  1.2069e-01|   -3.694976|
+-----------------------------------------------------------------------+
|        File Writing Summary       |              Filename             |
+-----------------------------------------------------------------------+
|SU2 binary restart                 |restart_flow_databladeVALIDATION_Blade_5.dat|
|                                   |                     (11595.3 MB/s)|
|Paraview                           |volume_flow_databladeVALIDATION_Blade_5.vtu|
|                                   |                      (1000.8 MB/s)|
|Paraview surface                   |surface_flowdatabladeVALIDATION_Blade_5.vtu|
|                                   |                     (93.5602 MB/s)|
|SU2 ASCII restart                  |restart_flow_databladeVALIDATION_Blade_5.csv|
|                                   |                     (20.7874 MB/s)|
|CSV file                           |surface_flowdatabladeVALIDATION_Blade_5.csv|
|                                   |                     (19.4558 MB/s)|
+-----------------------------------------------------------------------+
+--------------------------------------+
|  Inner_Iter|   Time(sec)|    rms[Rho]|
+--------------------------------------+
|         710|  1.2332e-01|   -3.655975|
|         720|  1.2242e-01|   -3.832483|
|         730|  1.2155e-01|   -3.802027|
|         740|  1.2089e-01|   -3.692494|
|         750|  1.2069e-01|   -3.720194|
+-----------------------------------------------------------------------+
|        File Writing Summary       |              Filename             |
+-----------------------------------------------------------------------+
|SU2 binary restart                 |restart_flow_databladeVALIDATION_Blade_5.dat|
|                                   |                     (12336.6 MB/s)|
|Paraview                           |volume_flow_databladeVALIDATION_Blade_5.vtu|
|                                   |                     (961.646 MB/s)|
|Paraview surface                   |surface_flowdatabladeVALIDATION_Blade_5.vtu|
|                                   |                     (36.7157 MB/s)|
|SU2 ASCII restart                  |restart_flow_databladeVALIDATION_Blade_5.csv|
|                                   |                      (21.519 MB/s)|
|CSV file                           |surface_flowdatabladeVALIDATION_Blade_5.csv|
|                                   |                     (21.8728 MB/s)|
+-----------------------------------------------------------------------+
+--------------------------------------+
|  Inner_Iter|   Time(sec)|    rms[Rho]|
+--------------------------------------+
|         760|  1.2298e-01|   -3.843643|
|         770|  1.2227e-01|   -3.805935|
|         780|  1.2164e-01|   -3.730904|
|         790|  1.2095e-01|   -3.832577|
|         800|  1.2026e-01|   -3.905069|
+-----------------------------------------------------------------------+
|        File Writing Summary       |              Filename             |
+-----------------------------------------------------------------------+
|SU2 binary restart                 |restart_flow_databladeVALIDATION_Blade_5.dat|
|                                   |                     (13186.9 MB/s)|
|Paraview                           |volume_flow_databladeVALIDATION_Blade_5.vtu|
|                                   |                     (1002.43 MB/s)|
|Paraview surface                   |surface_flowdatabladeVALIDATION_Blade_5.vtu|
|                                   |                     (127.599 MB/s)|
|SU2 ASCII restart                  |restart_flow_databladeVALIDATION_Blade_5.csv|
|                                   |                     (21.3426 MB/s)|
|CSV file                           |surface_flowdatabladeVALIDATION_Blade_5.csv|
|                                   |                     (19.1575 MB/s)|
+-----------------------------------------------------------------------+
+--------------------------------------+
|  Inner_Iter|   Time(sec)|    rms[Rho]|
+--------------------------------------+
|         810|  1.2246e-01|   -3.790735|
|         820|  1.2182e-01|   -3.785623|
|         830|  1.2129e-01|   -3.988879|
|         840|  1.2063e-01|   -3.932469|
|         850|  1.1998e-01|   -3.870549|
+-----------------------------------------------------------------------+
|        File Writing Summary       |              Filename             |
+-----------------------------------------------------------------------+
|SU2 binary restart                 |restart_flow_databladeVALIDATION_Blade_5.dat|
|                                   |                     (11731.7 MB/s)|
|Paraview                           |volume_flow_databladeVALIDATION_Blade_5.vtu|
|                                   |                     (980.603 MB/s)|
|Paraview surface                   |surface_flowdatabladeVALIDATION_Blade_5.vtu|
|                                   |                     (94.8224 MB/s)|
|SU2 ASCII restart                  |restart_flow_databladeVALIDATION_Blade_5.csv|
|                                   |                     (21.9169 MB/s)|
|CSV file                           |surface_flowdatabladeVALIDATION_Blade_5.csv|
|                                   |                     (21.1537 MB/s)|
+-----------------------------------------------------------------------+
+--------------------------------------+
|  Inner_Iter|   Time(sec)|    rms[Rho]|
+--------------------------------------+
|         860|  1.2199e-01|   -3.975169|
|         870|  1.2133e-01|   -4.076930|
|         880|  1.2100e-01|   -3.881052|
|         890|  1.2034e-01|   -4.156957|
|         900|  1.1968e-01|   -4.008605|
+-----------------------------------------------------------------------+
|        File Writing Summary       |              Filename             |
+-----------------------------------------------------------------------+
|SU2 binary restart                 |restart_flow_databladeVALIDATION_Blade_5.dat|
|                                   |                     (12610.3 MB/s)|
|Paraview                           |volume_flow_databladeVALIDATION_Blade_5.vtu|
|                                   |                     (1077.86 MB/s)|
|Paraview surface                   |surface_flowdatabladeVALIDATION_Blade_5.vtu|
|                                   |                     (103.408 MB/s)|
|SU2 ASCII restart                  |restart_flow_databladeVALIDATION_Blade_5.csv|
|                                   |                     (21.6525 MB/s)|
|CSV file                           |surface_flowdatabladeVALIDATION_Blade_5.csv|
|                                   |                      (19.377 MB/s)|
+-----------------------------------------------------------------------+
+--------------------------------------+
|  Inner_Iter|   Time(sec)|    rms[Rho]|
+--------------------------------------+
|         910|  1.2159e-01|   -3.974411|
|         920|  1.2102e-01|   -4.212228|
|         930|  1.2044e-01|   -4.204431|
|         940|  1.1986e-01|   -4.065422|
|         950|  1.1930e-01|   -4.141360|
+-----------------------------------------------------------------------+
|        File Writing Summary       |              Filename             |
+-----------------------------------------------------------------------+
|SU2 binary restart                 |restart_flow_databladeVALIDATION_Blade_5.dat|
|                                   |                     (12445.1 MB/s)|
|Paraview                           |volume_flow_databladeVALIDATION_Blade_5.vtu|
|                                   |                     (1104.15 MB/s)|
|Paraview surface                   |surface_flowdatabladeVALIDATION_Blade_5.vtu|
|                                   |                      (103.16 MB/s)|
|SU2 ASCII restart                  |restart_flow_databladeVALIDATION_Blade_5.csv|
|                                   |                      (21.773 MB/s)|
|CSV file                           |surface_flowdatabladeVALIDATION_Blade_5.csv|
|                                   |                     (19.7886 MB/s)|
+-----------------------------------------------------------------------+
+--------------------------------------+
|  Inner_Iter|   Time(sec)|    rms[Rho]|
+--------------------------------------+
|         960|  1.2107e-01|   -4.293401|
|         970|  1.2044e-01|   -4.294754|
|         980|  1.2000e-01|   -4.221630|
|         990|  1.1951e-01|   -4.384735|
|        1000|  1.1898e-01|   -4.391994|
+-----------------------------------------------------------------------+
|        File Writing Summary       |              Filename             |
+-----------------------------------------------------------------------+
|SU2 binary restart                 |restart_flow_databladeVALIDATION_Blade_5.dat|
|                                   |                     (11607.2 MB/s)|
|Paraview                           |volume_flow_databladeVALIDATION_Blade_5.vtu|
|                                   |                     (1056.86 MB/s)|
|Paraview surface                   |surface_flowdatabladeVALIDATION_Blade_5.vtu|
|                                   |                     (85.5067 MB/s)|
|SU2 ASCII restart                  |restart_flow_databladeVALIDATION_Blade_5.csv|
|                                   |                     (21.8029 MB/s)|
|CSV file                           |surface_flowdatabladeVALIDATION_Blade_5.csv|
|                                   |                     (19.3824 MB/s)|
+-----------------------------------------------------------------------+
+--------------------------------------+
|  Inner_Iter|   Time(sec)|    rms[Rho]|
+--------------------------------------+
|        1010|  1.2064e-01|   -4.341758|
|        1020|  1.2014e-01|   -4.426213|
|        1030|  1.1952e-01|   -4.491120|
|        1040|  1.1899e-01|   -4.475357|
|        1050|  1.1854e-01|   -4.387128|
+-----------------------------------------------------------------------+
|        File Writing Summary       |              Filename             |
+-----------------------------------------------------------------------+
|SU2 binary restart                 |restart_flow_databladeVALIDATION_Blade_5.dat|
|                                   |                     (12000.6 MB/s)|
|Paraview                           |volume_flow_databladeVALIDATION_Blade_5.vtu|
|                                   |                     (1022.16 MB/s)|
|Paraview surface                   |surface_flowdatabladeVALIDATION_Blade_5.vtu|
|                                   |                     (97.5701 MB/s)|
|SU2 ASCII restart                  |restart_flow_databladeVALIDATION_Blade_5.csv|
|                                   |                     (21.5691 MB/s)|
|CSV file                           |surface_flowdatabladeVALIDATION_Blade_5.csv|
|                                   |                     (21.5488 MB/s)|
+-----------------------------------------------------------------------+
+--------------------------------------+
|  Inner_Iter|   Time(sec)|    rms[Rho]|
+--------------------------------------+
|        1060|  1.2023e-01|   -4.492741|
|        1070|  1.1988e-01|   -4.462358|
|        1080|  1.1933e-01|   -4.582970|
|        1090|  1.1892e-01|   -4.576414|
|        1100|  1.1860e-01|   -4.442734|
+-----------------------------------------------------------------------+
|        File Writing Summary       |              Filename             |
+-----------------------------------------------------------------------+
|SU2 binary restart                 |restart_flow_databladeVALIDATION_Blade_5.dat|
|                                   |                     (9455.28 MB/s)|
|Paraview                           |volume_flow_databladeVALIDATION_Blade_5.vtu|
|                                   |                      (897.52 MB/s)|
|Paraview surface                   |surface_flowdatabladeVALIDATION_Blade_5.vtu|
|                                   |                     (95.3135 MB/s)|
|SU2 ASCII restart                  |restart_flow_databladeVALIDATION_Blade_5.csv|
|                                   |                     (21.1411 MB/s)|
|CSV file                           |surface_flowdatabladeVALIDATION_Blade_5.csv|
|                                   |                     (21.4072 MB/s)|
+-----------------------------------------------------------------------+
+--------------------------------------+
|  Inner_Iter|   Time(sec)|    rms[Rho]|
+--------------------------------------+
|        1110|  1.2012e-01|   -4.556837|
|        1120|  1.1972e-01|   -4.490591|
|        1130|  1.1917e-01|   -4.644061|
|        1140|  1.1884e-01|   -4.587596|
|        1150|  1.1844e-01|   -4.482042|
+-----------------------------------------------------------------------+
|        File Writing Summary       |              Filename             |
+-----------------------------------------------------------------------+
|SU2 binary restart                 |restart_flow_databladeVALIDATION_Blade_5.dat|
|                                   |                     (11994.3 MB/s)|
|Paraview                           |volume_flow_databladeVALIDATION_Blade_5.vtu|
|                                   |                     (1054.25 MB/s)|
|Paraview surface                   |surface_flowdatabladeVALIDATION_Blade_5.vtu|
|                                   |                     (99.2614 MB/s)|
|SU2 ASCII restart                  |restart_flow_databladeVALIDATION_Blade_5.csv|
|                                   |                     (21.4977 MB/s)|
|CSV file                           |surface_flowdatabladeVALIDATION_Blade_5.csv|
|                                   |                      (18.451 MB/s)|
+-----------------------------------------------------------------------+
+--------------------------------------+
|  Inner_Iter|   Time(sec)|    rms[Rho]|
+--------------------------------------+
|        1160|  1.2002e-01|   -4.630562|
|        1170|  1.1964e-01|   -4.636406|
|        1180|  1.1931e-01|   -4.577865|
|        1190|  1.1909e-01|   -4.638228|
|        1200|  1.1868e-01|   -4.710182|
+-----------------------------------------------------------------------+
|        File Writing Summary       |              Filename             |
+-----------------------------------------------------------------------+
|SU2 binary restart                 |restart_flow_databladeVALIDATION_Blade_5.dat|
|                                   |                     (11331.1 MB/s)|
|Paraview                           |volume_flow_databladeVALIDATION_Blade_5.vtu|
|                                   |                     (900.466 MB/s)|
|Paraview surface                   |surface_flowdatabladeVALIDATION_Blade_5.vtu|
|                                   |                     (85.9824 MB/s)|
|SU2 ASCII restart                  |restart_flow_databladeVALIDATION_Blade_5.csv|
|                                   |                     (20.1537 MB/s)|
|CSV file                           |surface_flowdatabladeVALIDATION_Blade_5.csv|
|                                   |                     (19.6076 MB/s)|
+-----------------------------------------------------------------------+
+--------------------------------------+
|  Inner_Iter|   Time(sec)|    rms[Rho]|
+--------------------------------------+
|        1210|  1.2033e-01|   -4.691625|
|        1220|  1.2029e-01|   -4.600477|
|        1230|  1.2016e-01|   -4.735723|
|        1240|  1.1986e-01|   -4.717662|
|        1250|  1.1952e-01|   -4.619259|
+-----------------------------------------------------------------------+
|        File Writing Summary       |              Filename             |
+-----------------------------------------------------------------------+
|SU2 binary restart                 |restart_flow_databladeVALIDATION_Blade_5.dat|
|                                   |                     (12030.7 MB/s)|
|Paraview                           |volume_flow_databladeVALIDATION_Blade_5.vtu|
|                                   |                     (821.937 MB/s)|
|Paraview surface                   |surface_flowdatabladeVALIDATION_Blade_5.vtu|
|                                   |                      (80.774 MB/s)|
|SU2 ASCII restart                  |restart_flow_databladeVALIDATION_Blade_5.csv|
|                                   |                     (21.3666 MB/s)|
|CSV file                           |surface_flowdatabladeVALIDATION_Blade_5.csv|
|                                   |                     (21.2795 MB/s)|
+-----------------------------------------------------------------------+
+--------------------------------------+
|  Inner_Iter|   Time(sec)|    rms[Rho]|
+--------------------------------------+
|        1260|  1.2095e-01|   -4.653714|
|        1270|  1.2063e-01|   -4.703948|
|        1280|  1.2019e-01|   -4.749672|
|        1290|  1.1982e-01|   -4.630535|
|        1300|  1.1938e-01|   -4.778367|
+-----------------------------------------------------------------------+
|        File Writing Summary       |              Filename             |
+-----------------------------------------------------------------------+
|SU2 binary restart                 |restart_flow_databladeVALIDATION_Blade_5.dat|
|                                   |                     (12796.5 MB/s)|
|Paraview                           |volume_flow_databladeVALIDATION_Blade_5.vtu|
|                                   |                     (1066.13 MB/s)|
|Paraview surface                   |surface_flowdatabladeVALIDATION_Blade_5.vtu|
|                                   |                     (102.909 MB/s)|
|SU2 ASCII restart                  |restart_flow_databladeVALIDATION_Blade_5.csv|
|                                   |                     (21.5168 MB/s)|
|CSV file                           |surface_flowdatabladeVALIDATION_Blade_5.csv|
|                                   |                     (21.7879 MB/s)|
+-----------------------------------------------------------------------+
+--------------------------------------+
|  Inner_Iter|   Time(sec)|    rms[Rho]|
+--------------------------------------+
|        1310|  1.2069e-01|   -4.743173|
|        1320|  1.2025e-01|   -4.852744|
|        1330|  1.1980e-01|   -4.869158|
|        1340|  1.1946e-01|   -4.777515|
|        1350|  1.1912e-01|   -4.735537|
+-----------------------------------------------------------------------+
|        File Writing Summary       |              Filename             |
+-----------------------------------------------------------------------+
|SU2 binary restart                 |restart_flow_databladeVALIDATION_Blade_5.dat|
|                                   |                     (11224.4 MB/s)|
|Paraview                           |volume_flow_databladeVALIDATION_Blade_5.vtu|
|                                   |                     (1138.18 MB/s)|
|Paraview surface                   |surface_flowdatabladeVALIDATION_Blade_5.vtu|
|                                   |                     (106.619 MB/s)|
|SU2 ASCII restart                  |restart_flow_databladeVALIDATION_Blade_5.csv|
|                                   |                     (21.5511 MB/s)|
|CSV file                           |surface_flowdatabladeVALIDATION_Blade_5.csv|
|                                   |                     (18.9961 MB/s)|
+-----------------------------------------------------------------------+
+--------------------------------------+
|  Inner_Iter|   Time(sec)|    rms[Rho]|
+--------------------------------------+
|        1360|  1.2037e-01|   -4.866303|
|        1370|  1.1994e-01|   -4.872895|
|        1380|  1.1963e-01|   -4.834780|
|        1390|  1.1936e-01|   -4.864948|
|        1400|  1.1908e-01|   -4.873488|
+-----------------------------------------------------------------------+
|        File Writing Summary       |              Filename             |
+-----------------------------------------------------------------------+
|SU2 binary restart                 |restart_flow_databladeVALIDATION_Blade_5.dat|
|                                   |                     (11919.5 MB/s)|
|Paraview                           |volume_flow_databladeVALIDATION_Blade_5.vtu|
|                                   |                     (1091.14 MB/s)|
|Paraview surface                   |surface_flowdatabladeVALIDATION_Blade_5.vtu|
|                                   |                     (14.4038 MB/s)|
|SU2 ASCII restart                  |restart_flow_databladeVALIDATION_Blade_5.csv|
|                                   |                     (21.0971 MB/s)|
|CSV file                           |surface_flowdatabladeVALIDATION_Blade_5.csv|
|                                   |                     (20.1273 MB/s)|
+-----------------------------------------------------------------------+
+--------------------------------------+
|  Inner_Iter|   Time(sec)|    rms[Rho]|
+--------------------------------------+
|        1410|  1.2050e-01|   -4.795376|
|        1420|  1.2016e-01|   -4.893752|
|        1430|  1.1973e-01|   -4.932728|
|        1440|  1.1946e-01|   -4.875462|
|        1450|  1.1917e-01|   -4.852479|
+-----------------------------------------------------------------------+
|        File Writing Summary       |              Filename             |
+-----------------------------------------------------------------------+
|SU2 binary restart                 |restart_flow_databladeVALIDATION_Blade_5.dat|
|                                   |                     (12265.1 MB/s)|
|Paraview                           |volume_flow_databladeVALIDATION_Blade_5.vtu|
|                                   |                     (950.376 MB/s)|
|Paraview surface                   |surface_flowdatabladeVALIDATION_Blade_5.vtu|
|                                   |                      (96.647 MB/s)|
|SU2 ASCII restart                  |restart_flow_databladeVALIDATION_Blade_5.csv|
|                                   |                     (21.4398 MB/s)|
|CSV file                           |surface_flowdatabladeVALIDATION_Blade_5.csv|
|                                   |                     (21.0422 MB/s)|
+-----------------------------------------------------------------------+
+--------------------------------------+
|  Inner_Iter|   Time(sec)|    rms[Rho]|
+--------------------------------------+
|        1460|  1.2038e-01|   -4.957764|
|        1470|  1.2006e-01|   -4.919272|
|        1480|  1.1983e-01|   -4.868962|
|        1490|  1.1946e-01|   -5.022022|
|        1500|  1.1916e-01|   -5.056718|
+-----------------------------------------------------------------------+
|        File Writing Summary       |              Filename             |
+-----------------------------------------------------------------------+
|SU2 binary restart                 |restart_flow_databladeVALIDATION_Blade_5.dat|
|                                   |                     (11027.8 MB/s)|
|Paraview                           |volume_flow_databladeVALIDATION_Blade_5.vtu|
|                                   |                     (1098.32 MB/s)|
|Paraview surface                   |surface_flowdatabladeVALIDATION_Blade_5.vtu|
|                                   |                     (95.8402 MB/s)|
|SU2 ASCII restart                  |restart_flow_databladeVALIDATION_Blade_5.csv|
|                                   |                     (20.1067 MB/s)|
|CSV file                           |surface_flowdatabladeVALIDATION_Blade_5.csv|
|                                   |                     (18.8475 MB/s)|
+-----------------------------------------------------------------------+
+--------------------------------------+
|  Inner_Iter|   Time(sec)|    rms[Rho]|
+--------------------------------------+
|        1510|  1.2040e-01|   -5.019936|
|        1520|  1.2010e-01|   -4.966670|
|        1530|  1.1988e-01|   -5.054899|
|        1540|  1.1970e-01|   -5.004730|
|        1550|  1.1949e-01|   -4.960091|
+-----------------------------------------------------------------------+
|        File Writing Summary       |              Filename             |
+-----------------------------------------------------------------------+
|SU2 binary restart                 |restart_flow_databladeVALIDATION_Blade_5.dat|
|                                   |                     (11542.2 MB/s)|
|Paraview                           |volume_flow_databladeVALIDATION_Blade_5.vtu|
|                                   |                     (950.242 MB/s)|
|Paraview surface                   |surface_flowdatabladeVALIDATION_Blade_5.vtu|
|                                   |                     (95.4683 MB/s)|
|SU2 ASCII restart                  |restart_flow_databladeVALIDATION_Blade_5.csv|
|                                   |                     (21.2831 MB/s)|
|CSV file                           |surface_flowdatabladeVALIDATION_Blade_5.csv|
|                                   |                     (21.7681 MB/s)|
+-----------------------------------------------------------------------+
+--------------------------------------+
|  Inner_Iter|   Time(sec)|    rms[Rho]|
+--------------------------------------+
|        1560|  1.2059e-01|   -5.075464|
|        1570|  1.2020e-01|   -5.095305|
|        1580|  1.1988e-01|   -5.054427|
|        1590|  1.1966e-01|   -4.993726|
|        1600|  1.1930e-01|   -5.095529|
+-----------------------------------------------------------------------+
|        File Writing Summary       |              Filename             |
+-----------------------------------------------------------------------+
|SU2 binary restart                 |restart_flow_databladeVALIDATION_Blade_5.dat|
|                                   |                     (12291.7 MB/s)|
|Paraview                           |volume_flow_databladeVALIDATION_Blade_5.vtu|
|                                   |                     (1024.77 MB/s)|
|Paraview surface                   |surface_flowdatabladeVALIDATION_Blade_5.vtu|
|                                   |                      (88.602 MB/s)|
|SU2 ASCII restart                  |restart_flow_databladeVALIDATION_Blade_5.csv|
|                                   |                     (20.8225 MB/s)|
|CSV file                           |surface_flowdatabladeVALIDATION_Blade_5.csv|
|                                   |                     (22.0686 MB/s)|
+-----------------------------------------------------------------------+
+--------------------------------------+
|  Inner_Iter|   Time(sec)|    rms[Rho]|
+--------------------------------------+
|        1610|  1.2039e-01|   -5.093137|
|        1620|  1.2015e-01|   -5.038835|
|        1630|  1.1986e-01|   -5.096523|
|        1640|  1.1949e-01|   -5.166303|
|        1650|  1.1914e-01|   -5.152620|
+-----------------------------------------------------------------------+
|        File Writing Summary       |              Filename             |
+-----------------------------------------------------------------------+
|SU2 binary restart                 |restart_flow_databladeVALIDATION_Blade_5.dat|
|                                   |                       (11608 MB/s)|
|Paraview                           |volume_flow_databladeVALIDATION_Blade_5.vtu|
|                                   |                     (968.739 MB/s)|
|Paraview surface                   |surface_flowdatabladeVALIDATION_Blade_5.vtu|
|                                   |                     (52.9313 MB/s)|
|SU2 ASCII restart                  |restart_flow_databladeVALIDATION_Blade_5.csv|
|                                   |                     (21.6603 MB/s)|
|CSV file                           |surface_flowdatabladeVALIDATION_Blade_5.csv|
|                                   |                     (20.3962 MB/s)|
+-----------------------------------------------------------------------+
+--------------------------------------+
|  Inner_Iter|   Time(sec)|    rms[Rho]|
+--------------------------------------+
|        1660|  1.2027e-01|   -5.053322|
|        1670|  1.2000e-01|   -5.123979|
|        1680|  1.1977e-01|   -5.091827|
|        1690|  1.1941e-01|   -5.204606|
|        1700|  1.1915e-01|   -5.174854|
+-----------------------------------------------------------------------+
|        File Writing Summary       |              Filename             |
+-----------------------------------------------------------------------+
|SU2 binary restart                 |restart_flow_databladeVALIDATION_Blade_5.dat|
|                                   |                     (10670.2 MB/s)|
|Paraview                           |volume_flow_databladeVALIDATION_Blade_5.vtu|
|                                   |                         (877 MB/s)|
|Paraview surface                   |surface_flowdatabladeVALIDATION_Blade_5.vtu|
|                                   |                     (101.454 MB/s)|
|SU2 ASCII restart                  |restart_flow_databladeVALIDATION_Blade_5.csv|
|                                   |                      (21.732 MB/s)|
|CSV file                           |surface_flowdatabladeVALIDATION_Blade_5.csv|
|                                   |                     (20.5652 MB/s)|
+-----------------------------------------------------------------------+
+--------------------------------------+
|  Inner_Iter|   Time(sec)|    rms[Rho]|
+--------------------------------------+
|        1710|  1.2019e-01|   -5.114676|
|        1720|  1.1984e-01|   -5.203522|
|        1730|  1.1955e-01|   -5.182365|
|        1740|  1.1937e-01|   -5.128652|
|        1750|  1.1907e-01|   -5.229252|
+-----------------------------------------------------------------------+
|        File Writing Summary       |              Filename             |
+-----------------------------------------------------------------------+
|SU2 binary restart                 |restart_flow_databladeVALIDATION_Blade_5.dat|
|                                   |                     (1838.05 MB/s)|
|Paraview                           |volume_flow_databladeVALIDATION_Blade_5.vtu|
|                                   |                     (280.594 MB/s)|
|Paraview surface                   |surface_flowdatabladeVALIDATION_Blade_5.vtu|
|                                   |                     (52.0154 MB/s)|
|SU2 ASCII restart                  |restart_flow_databladeVALIDATION_Blade_5.csv|
|                                   |                     (21.1578 MB/s)|
|CSV file                           |surface_flowdatabladeVALIDATION_Blade_5.csv|
|                                   |                     (19.4488 MB/s)|
+-----------------------------------------------------------------------+
+--------------------------------------+
|  Inner_Iter|   Time(sec)|    rms[Rho]|
+--------------------------------------+
|        1760|  1.2011e-01|   -5.276111|
|        1770|  1.1979e-01|   -5.271652|
|        1780|  1.1953e-01|   -5.241462|
|        1790|  1.1930e-01|   -5.235332|
|        1800|  1.1914e-01|   -5.268468|
+-----------------------------------------------------------------------+
|        File Writing Summary       |              Filename             |
+-----------------------------------------------------------------------+
|SU2 binary restart                 |restart_flow_databladeVALIDATION_Blade_5.dat|
|                                   |                     (9164.63 MB/s)|
|Paraview                           |volume_flow_databladeVALIDATION_Blade_5.vtu|
|                                   |                     (983.843 MB/s)|
|Paraview surface                   |surface_flowdatabladeVALIDATION_Blade_5.vtu|
|                                   |                     (95.2834 MB/s)|
|SU2 ASCII restart                  |restart_flow_databladeVALIDATION_Blade_5.csv|
|                                   |                     (20.9996 MB/s)|
|CSV file                           |surface_flowdatabladeVALIDATION_Blade_5.csv|
|                                   |                     (19.3483 MB/s)|
+-----------------------------------------------------------------------+
+--------------------------------------+
|  Inner_Iter|   Time(sec)|    rms[Rho]|
+--------------------------------------+
|        1810|  1.2026e-01|   -5.285615|
|        1820|  1.2005e-01|   -5.294945|
|        1830|  1.1984e-01|   -5.341840|
|        1840|  1.1963e-01|   -5.373457|
|        1850|  1.1940e-01|   -5.388065|
+-----------------------------------------------------------------------+
|        File Writing Summary       |              Filename             |
+-----------------------------------------------------------------------+
|SU2 binary restart                 |restart_flow_databladeVALIDATION_Blade_5.dat|
|                                   |                     (11157.3 MB/s)|
|Paraview                           |volume_flow_databladeVALIDATION_Blade_5.vtu|
|                                   |                     (917.862 MB/s)|
|Paraview surface                   |surface_flowdatabladeVALIDATION_Blade_5.vtu|
|                                   |                     (84.8626 MB/s)|
|SU2 ASCII restart                  |restart_flow_databladeVALIDATION_Blade_5.csv|
|                                   |                     (21.1564 MB/s)|
|CSV file                           |surface_flowdatabladeVALIDATION_Blade_5.csv|
|                                   |                     (20.5497 MB/s)|
+-----------------------------------------------------------------------+
+--------------------------------------+
|  Inner_Iter|   Time(sec)|    rms[Rho]|
+--------------------------------------+
|        1860|  1.2052e-01|   -5.400434|
|        1870|  1.2033e-01|   -5.397681|
|        1880|  1.2009e-01|   -5.421910|
|        1890|  1.1986e-01|   -5.460456|
|        1900|  1.1961e-01|   -5.461895|
+-----------------------------------------------------------------------+
|        File Writing Summary       |              Filename             |
+-----------------------------------------------------------------------+
|SU2 binary restart                 |restart_flow_databladeVALIDATION_Blade_5.dat|
|                                   |                     (11812.1 MB/s)|
|Paraview                           |volume_flow_databladeVALIDATION_Blade_5.vtu|
|                                   |                        (1095 MB/s)|
|Paraview surface                   |surface_flowdatabladeVALIDATION_Blade_5.vtu|
|                                   |                     (101.651 MB/s)|
|SU2 ASCII restart                  |restart_flow_databladeVALIDATION_Blade_5.csv|
|                                   |                     (21.5474 MB/s)|
|CSV file                           |surface_flowdatabladeVALIDATION_Blade_5.csv|
|                                   |                     (21.1266 MB/s)|
+-----------------------------------------------------------------------+
+--------------------------------------+
|  Inner_Iter|   Time(sec)|    rms[Rho]|
+--------------------------------------+
|        1910|  1.2048e-01|   -5.528384|
|        1920|  1.2015e-01|   -5.560240|
|        1930|  1.1986e-01|   -5.540124|
|        1940|  1.1957e-01|   -5.550444|
|        1950|  1.1926e-01|   -5.597755|
+-----------------------------------------------------------------------+
|        File Writing Summary       |              Filename             |
+-----------------------------------------------------------------------+
|SU2 binary restart                 |restart_flow_databladeVALIDATION_Blade_5.dat|
|                                   |                     (11987.9 MB/s)|
|Paraview                           |volume_flow_databladeVALIDATION_Blade_5.vtu|
|                                   |                     (952.939 MB/s)|
|Paraview surface                   |surface_flowdatabladeVALIDATION_Blade_5.vtu|
|                                   |                     (115.657 MB/s)|
|SU2 ASCII restart                  |restart_flow_databladeVALIDATION_Blade_5.csv|
|                                   |                     (20.7994 MB/s)|
|CSV file                           |surface_flowdatabladeVALIDATION_Blade_5.csv|
|                                   |                     (21.4332 MB/s)|
+-----------------------------------------------------------------------+
+--------------------------------------+
|  Inner_Iter|   Time(sec)|    rms[Rho]|
+--------------------------------------+
|        1960|  1.2022e-01|   -5.584741|
|        1970|  1.1997e-01|   -5.525369|
|        1980|  1.1979e-01|   -5.529122|
|        1990|  1.1954e-01|   -5.602356|
|        2000|  1.1925e-01|   -5.600856|
+-----------------------------------------------------------------------+
|        File Writing Summary       |              Filename             |
+-----------------------------------------------------------------------+
|SU2 binary restart                 |restart_flow_databladeVALIDATION_Blade_5.dat|
|                                   |                     (10837.9 MB/s)|
|Paraview                           |volume_flow_databladeVALIDATION_Blade_5.vtu|
|                                   |                     (1046.34 MB/s)|
|Paraview surface                   |surface_flowdatabladeVALIDATION_Blade_5.vtu|
|                                   |                     (100.907 MB/s)|
|SU2 ASCII restart                  |restart_flow_databladeVALIDATION_Blade_5.csv|
|                                   |                     (21.2894 MB/s)|
|CSV file                           |surface_flowdatabladeVALIDATION_Blade_5.csv|
|                                   |                     (20.0256 MB/s)|
+-----------------------------------------------------------------------+
+--------------------------------------+
|  Inner_Iter|   Time(sec)|    rms[Rho]|
+--------------------------------------+
|        2010|  1.2015e-01|   -5.556915|
|        2020|  1.1987e-01|   -5.652269|
|        2030|  1.1957e-01|   -5.648967|
|        2040|  1.1933e-01|   -5.610977|
|        2050|  1.1910e-01|   -5.587629|
+-----------------------------------------------------------------------+
|        File Writing Summary       |              Filename             |
+-----------------------------------------------------------------------+
|SU2 binary restart                 |restart_flow_databladeVALIDATION_Blade_5.dat|
|                                   |                     (11915.9 MB/s)|
|Paraview                           |volume_flow_databladeVALIDATION_Blade_5.vtu|
|                                   |                     (1079.51 MB/s)|
|Paraview surface                   |surface_flowdatabladeVALIDATION_Blade_5.vtu|
|                                   |                      (138.04 MB/s)|
|SU2 ASCII restart                  |restart_flow_databladeVALIDATION_Blade_5.csv|
|                                   |                     (20.8329 MB/s)|
|CSV file                           |surface_flowdatabladeVALIDATION_Blade_5.csv|
|                                   |                     (21.5815 MB/s)|
+-----------------------------------------------------------------------+
+--------------------------------------+
|  Inner_Iter|   Time(sec)|    rms[Rho]|
+--------------------------------------+
|        2060|  1.1994e-01|   -5.663142|
|        2070|  1.1966e-01|   -5.669542|
|        2080|  1.1941e-01|   -5.663865|
|        2090|  1.1921e-01|   -5.725513|
|        2100|  1.1896e-01|   -5.740179|
+-----------------------------------------------------------------------+
|        File Writing Summary       |              Filename             |
+-----------------------------------------------------------------------+
|SU2 binary restart                 |restart_flow_databladeVALIDATION_Blade_5.dat|
|                                   |                     (10139.5 MB/s)|
|Paraview                           |volume_flow_databladeVALIDATION_Blade_5.vtu|
|                                   |                     (940.437 MB/s)|
|Paraview surface                   |surface_flowdatabladeVALIDATION_Blade_5.vtu|
|                                   |                     (92.9829 MB/s)|
|SU2 ASCII restart                  |restart_flow_databladeVALIDATION_Blade_5.csv|
|                                   |                     (21.0673 MB/s)|
|CSV file                           |surface_flowdatabladeVALIDATION_Blade_5.csv|
|                                   |                     (18.9731 MB/s)|
+-----------------------------------------------------------------------+
+--------------------------------------+
|  Inner_Iter|   Time(sec)|    rms[Rho]|
+--------------------------------------+
|        2110|  1.1982e-01|   -5.704952|
|        2120|  1.1965e-01|   -5.617687|
|        2130|  1.1940e-01|   -5.706655|
|        2140|  1.1924e-01|   -5.689155|
|        2150|  1.1898e-01|   -5.778275|
+-----------------------------------------------------------------------+
|        File Writing Summary       |              Filename             |
+-----------------------------------------------------------------------+
|SU2 binary restart                 |restart_flow_databladeVALIDATION_Blade_5.dat|
|                                   |                     (11123.7 MB/s)|
|Paraview                           |volume_flow_databladeVALIDATION_Blade_5.vtu|
|                                   |                     (621.495 MB/s)|
|Paraview surface                   |surface_flowdatabladeVALIDATION_Blade_5.vtu|
|                                   |                     (84.6718 MB/s)|
|SU2 ASCII restart                  |restart_flow_databladeVALIDATION_Blade_5.csv|
|                                   |                     (20.9962 MB/s)|
|CSV file                           |surface_flowdatabladeVALIDATION_Blade_5.csv|
|                                   |                     (21.6199 MB/s)|
+-----------------------------------------------------------------------+
+--------------------------------------+
|  Inner_Iter|   Time(sec)|    rms[Rho]|
+--------------------------------------+
|        2160|  1.1995e-01|   -5.738262|
|        2170|  1.1983e-01|   -5.778417|
|        2180|  1.1968e-01|   -5.766388|
|        2190|  1.1956e-01|   -5.737698|
|        2200|  1.1950e-01|   -5.754021|
+-----------------------------------------------------------------------+
|        File Writing Summary       |              Filename             |
+-----------------------------------------------------------------------+
|SU2 binary restart                 |restart_flow_databladeVALIDATION_Blade_5.dat|
|                                   |                     (10651.6 MB/s)|
|Paraview                           |volume_flow_databladeVALIDATION_Blade_5.vtu|
|                                   |                     (951.379 MB/s)|
|Paraview surface                   |surface_flowdatabladeVALIDATION_Blade_5.vtu|
|                                   |                     (94.5324 MB/s)|
|SU2 ASCII restart                  |restart_flow_databladeVALIDATION_Blade_5.csv|
|                                   |                     (19.5688 MB/s)|
|CSV file                           |surface_flowdatabladeVALIDATION_Blade_5.csv|
|                                   |                     (19.4632 MB/s)|
+-----------------------------------------------------------------------+
+--------------------------------------+
|  Inner_Iter|   Time(sec)|    rms[Rho]|
+--------------------------------------+
|        2210|  1.2049e-01|   -5.846451|
|        2220|  1.2029e-01|   -5.870767|
|        2230|  1.2012e-01|   -5.842833|
|        2240|  1.1995e-01|   -5.831348|
|        2250|  1.1972e-01|   -5.850227|
+-----------------------------------------------------------------------+
|        File Writing Summary       |              Filename             |
+-----------------------------------------------------------------------+
|SU2 binary restart                 |restart_flow_databladeVALIDATION_Blade_5.dat|
|                                   |                     (9709.97 MB/s)|
|Paraview                           |volume_flow_databladeVALIDATION_Blade_5.vtu|
|                                   |                     (919.572 MB/s)|
|Paraview surface                   |surface_flowdatabladeVALIDATION_Blade_5.vtu|
|                                   |                     (98.1061 MB/s)|
|SU2 ASCII restart                  |restart_flow_databladeVALIDATION_Blade_5.csv|
|                                   |                     (21.2479 MB/s)|
|CSV file                           |surface_flowdatabladeVALIDATION_Blade_5.csv|
|                                   |                     (20.6769 MB/s)|
+-----------------------------------------------------------------------+
+--------------------------------------+
|  Inner_Iter|   Time(sec)|    rms[Rho]|
+--------------------------------------+
|        2260|  1.2054e-01|   -5.785005|
|        2270|  1.2036e-01|   -5.773645|
|        2280|  1.2016e-01|   -5.908457|
|        2290|  1.1997e-01|   -5.935447|
|        2300|  1.1979e-01|   -5.916598|
+-----------------------------------------------------------------------+
|        File Writing Summary       |              Filename             |
+-----------------------------------------------------------------------+
|SU2 binary restart                 |restart_flow_databladeVALIDATION_Blade_5.dat|
|                                   |                     (10733.7 MB/s)|
|Paraview                           |volume_flow_databladeVALIDATION_Blade_5.vtu|
|                                   |                     (1092.68 MB/s)|
|Paraview surface                   |surface_flowdatabladeVALIDATION_Blade_5.vtu|
|                                   |                     (103.493 MB/s)|
|SU2 ASCII restart                  |restart_flow_databladeVALIDATION_Blade_5.csv|
|                                   |                     (21.0799 MB/s)|
|CSV file                           |surface_flowdatabladeVALIDATION_Blade_5.csv|
|                                   |                     (21.2339 MB/s)|
+-----------------------------------------------------------------------+
+--------------------------------------+
|  Inner_Iter|   Time(sec)|    rms[Rho]|
+--------------------------------------+
|        2310|  1.2055e-01|   -5.885052|
|        2320|  1.2029e-01|   -5.910873|
|        2330|  1.2004e-01|   -5.878771|
|        2340|  1.1984e-01|   -5.843332|
|        2350|  1.1957e-01|   -5.982230|
+-----------------------------------------------------------------------+
|        File Writing Summary       |              Filename             |
+-----------------------------------------------------------------------+
|SU2 binary restart                 |restart_flow_databladeVALIDATION_Blade_5.dat|
|                                   |                     (12211.3 MB/s)|
|Paraview                           |volume_flow_databladeVALIDATION_Blade_5.vtu|
|                                   |                     (1001.01 MB/s)|
|Paraview surface                   |surface_flowdatabladeVALIDATION_Blade_5.vtu|
|                                   |                     (104.916 MB/s)|
[...]
+-----------------------------------------------------------------------+
|        File Writing Summary       |              Filename             |
+-----------------------------------------------------------------------+
|SU2 binary restart                 |restart_flow_databladeVALIDATION_Blade_5.dat|
|                                   |                     (11932.9 MB/s)|
|Paraview                           |volume_flow_databladeVALIDATION_Blade_5.vtu|
|                                   |                     (1105.73 MB/s)|
|Paraview surface                   |surface_flowdatabladeVALIDATION_Blade_5.vtu|
|                                   |                     (98.0982 MB/s)|
|SU2 ASCII restart                  |restart_flow_databladeVALIDATION_Blade_5.csv|
|                                   |                     (21.2716 MB/s)|
|CSV file                           |surface_flowdatabladeVALIDATION_Blade_5.csv|
|                                   |                     (20.0509 MB/s)|
+-----------------------------------------------------------------------+
+--------------------------------------+
|  Inner_Iter|   Time(sec)|    rms[Rho]|
+--------------------------------------+
|        3110|  1.1906e-01|   -6.581578|
|        3120|  1.1898e-01|   -6.630421|
|        3130|  1.1884e-01|   -6.627445|
|        3140|  1.1873e-01|   -6.598910|
|        3150|  1.1857e-01|   -6.645676|
+-----------------------------------------------------------------------+
|        File Writing Summary       |              Filename             |
+-----------------------------------------------------------------------+
|SU2 binary restart                 |restart_flow_databladeVALIDATION_Blade_5.dat|
|                                   |                       (10653 MB/s)|
|Paraview                           |volume_flow_databladeVALIDATION_Blade_5.vtu|
|                                   |                     (730.579 MB/s)|
|Paraview surface                   |surface_flowdatabladeVALIDATION_Blade_5.vtu|
|                                   |                     (73.8508 MB/s)|
|SU2 ASCII restart                  |restart_flow_databladeVALIDATION_Blade_5.csv|
|                                   |                     (20.6308 MB/s)|
|CSV file                           |surface_flowdatabladeVALIDATION_Blade_5.csv|
|                                   |                     (17.4388 MB/s)|
+-----------------------------------------------------------------------+
+--------------------------------------+
|  Inner_Iter|   Time(sec)|    rms[Rho]|
+--------------------------------------+
|        3160|  1.1915e-01|   -6.667707|
|        3170|  1.1898e-01|   -6.661802|
|        3180|  1.1884e-01|   -6.631919|
|        3190|  1.1869e-01|   -6.681894|
|        3200|  1.1856e-01|   -6.666064|
+-----------------------------------------------------------------------+
|        File Writing Summary       |              Filename             |
+-----------------------------------------------------------------------+
|SU2 binary restart                 |restart_flow_databladeVALIDATION_Blade_5.dat|
|                                   |                     (10423.4 MB/s)|
|Paraview                           |volume_flow_databladeVALIDATION_Blade_5.vtu|
|                                   |                     (820.221 MB/s)|
|Paraview surface                   |surface_flowdatabladeVALIDATION_Blade_5.vtu|
|                                   |                      (23.016 MB/s)|
|SU2 ASCII restart                  |restart_flow_databladeVALIDATION_Blade_5.csv|
|                                   |                     (20.2531 MB/s)|
|CSV file                           |surface_flowdatabladeVALIDATION_Blade_5.csv|
|                                   |                     (19.0492 MB/s)|
+-----------------------------------------------------------------------+
+--------------------------------------+
|  Inner_Iter|   Time(sec)|    rms[Rho]|
+--------------------------------------+
|        3210|  1.1918e-01|   -6.634016|
|        3220|  1.1907e-01|   -6.656089|
|        3230|  1.1892e-01|   -6.689098|
|        3240|  1.1885e-01|   -6.669325|
|        3250|  1.1877e-01|   -6.679219|
+-----------------------------------------------------------------------+
|        File Writing Summary       |              Filename             |
+-----------------------------------------------------------------------+
|SU2 binary restart                 |restart_flow_databladeVALIDATION_Blade_5.dat|
|                                   |                     (11841.2 MB/s)|
|Paraview                           |volume_flow_databladeVALIDATION_Blade_5.vtu|
|                                   |                     (939.954 MB/s)|
|Paraview surface                   |surface_flowdatabladeVALIDATION_Blade_5.vtu|
|                                   |                     (86.7465 MB/s)|
|SU2 ASCII restart                  |restart_flow_databladeVALIDATION_Blade_5.csv|
|                                   |                     (21.2572 MB/s)|
|CSV file                           |surface_flowdatabladeVALIDATION_Blade_5.csv|
|                                   |                     (21.9848 MB/s)|
+-----------------------------------------------------------------------+
+--------------------------------------+
|  Inner_Iter|   Time(sec)|    rms[Rho]|
+--------------------------------------+
|        3260|  1.1927e-01|   -6.734702|
|        3270|  1.1910e-01|   -6.719779|
|        3280|  1.1894e-01|   -6.700534|
|        3290|  1.1881e-01|   -6.759946|
|        3300|  1.1866e-01|   -6.772515|
+-----------------------------------------------------------------------+
|        File Writing Summary       |              Filename             |
+-----------------------------------------------------------------------+
|SU2 binary restart                 |restart_flow_databladeVALIDATION_Blade_5.dat|
|                                   |                     (10367.5 MB/s)|
|Paraview                           |volume_flow_databladeVALIDATION_Blade_5.vtu|
|                                   |                     (761.614 MB/s)|
|Paraview surface                   |surface_flowdatabladeVALIDATION_Blade_5.vtu|
|                                   |                     (81.3189 MB/s)|
|SU2 ASCII restart                  |restart_flow_databladeVALIDATION_Blade_5.csv|
|                                   |                     (21.5192 MB/s)|
|CSV file                           |surface_flowdatabladeVALIDATION_Blade_5.csv|
|                                   |                     (21.9242 MB/s)|
+-----------------------------------------------------------------------+
+--------------------------------------+
|  Inner_Iter|   Time(sec)|    rms[Rho]|
+--------------------------------------+
|        3310|  1.1917e-01|   -6.756657|
|        3320|  1.1906e-01|   -6.741347|
|        3330|  1.1887e-01|   -6.767565|
|        3340|  1.1873e-01|   -6.748611|
|        3350|  1.1862e-01|   -6.727235|
+-----------------------------------------------------------------------+
|        File Writing Summary       |              Filename             |
+-----------------------------------------------------------------------+
|SU2 binary restart                 |restart_flow_databladeVALIDATION_Blade_5.dat|
|                                   |                     (10689.6 MB/s)|
|Paraview                           |volume_flow_databladeVALIDATION_Blade_5.vtu|
|                                   |                     (390.217 MB/s)|
|Paraview surface                   |surface_flowdatabladeVALIDATION_Blade_5.vtu|
|                                   |                     (26.4074 MB/s)|
|SU2 ASCII restart                  |restart_flow_databladeVALIDATION_Blade_5.csv|
|                                   |                     (20.4501 MB/s)|
|CSV file                           |surface_flowdatabladeVALIDATION_Blade_5.csv|
|                                   |                     (18.8293 MB/s)|
+-----------------------------------------------------------------------+
+--------------------------------------+
|  Inner_Iter|   Time(sec)|    rms[Rho]|
+--------------------------------------+
|        3360|  1.1919e-01|   -6.774625|
|        3370|  1.1910e-01|   -6.769119|
|        3380|  1.1901e-01|   -6.784220|
|        3390|  1.1891e-01|   -6.826575|
|        3400|  1.1879e-01|   -6.812938|
+-----------------------------------------------------------------------+
|        File Writing Summary       |              Filename             |
+-----------------------------------------------------------------------+
|SU2 binary restart                 |restart_flow_databladeVALIDATION_Blade_5.dat|
|                                   |                     (11695.3 MB/s)|
|Paraview                           |volume_flow_databladeVALIDATION_Blade_5.vtu|
|                                   |                     (900.684 MB/s)|
|Paraview surface                   |surface_flowdatabladeVALIDATION_Blade_5.vtu|
|                                   |                     (126.801 MB/s)|
|SU2 ASCII restart                  |restart_flow_databladeVALIDATION_Blade_5.csv|
|                                   |                     (20.9706 MB/s)|
|CSV file                           |surface_flowdatabladeVALIDATION_Blade_5.csv|
|                                   |                     (19.6824 MB/s)|
+-----------------------------------------------------------------------+
+--------------------------------------+
|  Inner_Iter|   Time(sec)|    rms[Rho]|
+--------------------------------------+
|        3410|  1.1936e-01|   -6.813331|
|        3420|  1.1919e-01|   -6.851766|
|        3430|  1.1901e-01|   -6.858033|
|        3440|  1.1886e-01|   -6.839451|
|        3450|  1.1877e-01|   -6.846663|
+-----------------------------------------------------------------------+
|        File Writing Summary       |              Filename             |
+-----------------------------------------------------------------------+
|SU2 binary restart                 |restart_flow_databladeVALIDATION_Blade_5.dat|
|                                   |                     (11716.1 MB/s)|
|Paraview                           |volume_flow_databladeVALIDATION_Blade_5.vtu|
|                                   |                     (852.757 MB/s)|
|Paraview surface                   |surface_flowdatabladeVALIDATION_Blade_5.vtu|
|                                   |                     (127.951 MB/s)|
|SU2 ASCII restart                  |restart_flow_databladeVALIDATION_Blade_5.csv|
|                                   |                     (21.2755 MB/s)|
|CSV file                           |surface_flowdatabladeVALIDATION_Blade_5.csv|
|                                   |                     (20.6701 MB/s)|
+-----------------------------------------------------------------------+
+--------------------------------------+
|  Inner_Iter|   Time(sec)|    rms[Rho]|
+--------------------------------------+
|        3460|  1.1925e-01|   -6.854353|
|        3470|  1.1908e-01|   -6.837886|
|        3480|  1.1893e-01|   -6.814787|
|        3490|  1.1876e-01|   -6.857609|
|        3500|  1.1860e-01|   -6.873804|
+-----------------------------------------------------------------------+
|        File Writing Summary       |              Filename             |
+-----------------------------------------------------------------------+
|SU2 binary restart                 |restart_flow_databladeVALIDATION_Blade_5.dat|
|                                   |                     (12154.2 MB/s)|
|Paraview                           |volume_flow_databladeVALIDATION_Blade_5.vtu|
|                                   |                     (1024.66 MB/s)|
|Paraview surface                   |surface_flowdatabladeVALIDATION_Blade_5.vtu|
|                                   |                     (101.788 MB/s)|
|SU2 ASCII restart                  |restart_flow_databladeVALIDATION_Blade_5.csv|
|                                   |                     (21.3853 MB/s)|
|CSV file                           |surface_flowdatabladeVALIDATION_Blade_5.csv|
|                                   |                     (22.5143 MB/s)|
+-----------------------------------------------------------------------+
+--------------------------------------+
|  Inner_Iter|   Time(sec)|    rms[Rho]|
+--------------------------------------+
|        3510|  1.1908e-01|   -6.874170|
|        3520|  1.1893e-01|   -6.899689|
|        3530|  1.1875e-01|   -6.917668|
|        3540|  1.1863e-01|   -6.871764|
|        3550|  1.1852e-01|   -6.875609|
+-----------------------------------------------------------------------+
|        File Writing Summary       |              Filename             |
+-----------------------------------------------------------------------+
|SU2 binary restart                 |restart_flow_databladeVALIDATION_Blade_5.dat|
|                                   |                     (12243.3 MB/s)|
|Paraview                           |volume_flow_databladeVALIDATION_Blade_5.vtu|
|                                   |                     (1068.91 MB/s)|
|Paraview surface                   |surface_flowdatabladeVALIDATION_Blade_5.vtu|
|                                   |                     (98.3502 MB/s)|
|SU2 ASCII restart                  |restart_flow_databladeVALIDATION_Blade_5.csv|
|                                   |                     (21.4423 MB/s)|
|CSV file                           |surface_flowdatabladeVALIDATION_Blade_5.csv|
|                                   |                     (21.6583 MB/s)|
+-----------------------------------------------------------------------+
+--------------------------------------+
|  Inner_Iter|   Time(sec)|    rms[Rho]|
+--------------------------------------+
|        3560|  1.1904e-01|   -6.903274|
|        3570|  1.1892e-01|   -6.902608|
|        3580|  1.1876e-01|   -6.923557|
|        3590|  1.1861e-01|   -6.910220|
|        3600|  1.1846e-01|   -6.934352|
+-----------------------------------------------------------------------+
|        File Writing Summary       |              Filename             |
+-----------------------------------------------------------------------+
|SU2 binary restart                 |restart_flow_databladeVALIDATION_Blade_5.dat|
|                                   |                     (11001.8 MB/s)|
|Paraview                           |volume_flow_databladeVALIDATION_Blade_5.vtu|
|                                   |                     (1033.31 MB/s)|
|Paraview surface                   |surface_flowdatabladeVALIDATION_Blade_5.vtu|
|                                   |                      (89.311 MB/s)|
|SU2 ASCII restart                  |restart_flow_databladeVALIDATION_Blade_5.csv|
|                                   |                     (21.4113 MB/s)|
|CSV file                           |surface_flowdatabladeVALIDATION_Blade_5.csv|
|                                   |                     (21.3033 MB/s)|
+-----------------------------------------------------------------------+
+--------------------------------------+
|  Inner_Iter|   Time(sec)|    rms[Rho]|
+--------------------------------------+
|        3610|  1.1892e-01|   -6.971874|
|        3620|  1.1876e-01|   -6.980163|
|        3630|  1.1862e-01|   -6.971936|
|        3640|  1.1846e-01|   -6.989958|
|        3650|  1.1830e-01|   -6.989223|
+-----------------------------------------------------------------------+
|        File Writing Summary       |              Filename             |
+-----------------------------------------------------------------------+
|SU2 binary restart                 |restart_flow_databladeVALIDATION_Blade_5.dat|
|                                   |                     (12200.9 MB/s)|
|Paraview                           |volume_flow_databladeVALIDATION_Blade_5.vtu|
|                                   |                     (959.614 MB/s)|
|Paraview surface                   |surface_flowdatabladeVALIDATION_Blade_5.vtu|
|                                   |                     (95.3965 MB/s)|
|SU2 ASCII restart                  |restart_flow_databladeVALIDATION_Blade_5.csv|
|                                   |                       (21.22 MB/s)|
|CSV file                           |surface_flowdatabladeVALIDATION_Blade_5.csv|
|                                   |                     (21.4968 MB/s)|
+-----------------------------------------------------------------------+
+--------------------------------------+
|  Inner_Iter|   Time(sec)|    rms[Rho]|
+--------------------------------------+
|        3660|  1.1882e-01|   -6.975836|
|        3670|  1.1872e-01|   -6.957359|
|        3678|  1.1863e-01|   -7.001594|

----------------------------- Solver Exit -------------------------------
All convergence criteria satisfied.
+-----------------------------------------------------------------------+
|      Convergence Field     |     Value    |   Criterion  |  Converged |
+-----------------------------------------------------------------------+
|                    rms[Rho]|      -7.00159|          < -7|         Yes|
+-----------------------------------------------------------------------+
-------------------------------------------------------------------------
+-----------------------------------------------------------------------+
|        File Writing Summary       |              Filename             |
+-----------------------------------------------------------------------+
|SU2 binary restart                 |restart_flow_databladeVALIDATION_Blade_5.dat|
|                                   |                     (6129.23 MB/s)|
|Paraview                           |volume_flow_databladeVALIDATION_Blade_5.vtu|
|                                   |                     (892.062 MB/s)|
|Paraview surface                   |surface_flowdatabladeVALIDATION_Blade_5.vtu|
|                                   |                     (11.9174 MB/s)|
|SU2 ASCII restart                  |restart_flow_databladeVALIDATION_Blade_5.csv|
|                                   |                     (20.2764 MB/s)|
|CSV file                           |surface_flowdatabladeVALIDATION_Blade_5.csv|
|                                   |                     (17.8068 MB/s)|
+-----------------------------------------------------------------------+

--------------------------- Finalizing Solver ---------------------------
Deleted CNumerics container.
Deleted CIntegration container.
Deleted CSolver container.
Deleted CIteration container.
Deleted CInterface container.
Deleted CGeometry container.
Deleted CFreeFormDefBox class.
Deleted CSurfaceMovement class.
Deleted CVolumetricMovement class.
Deleted CConfig container.
Deleted nInst container.
Deleted COutput class.
-------------------------------------------------------------------------


-------------------------- Performance Summary --------------------------
Simulation totals:
   Wall-clock time (hrs):     0.12205 |            Core-hrs:     1.46459
                   Cores:          12 |          DOFs/point:           5
             Points/core:      5002.5 |   Ghost points/core:     149.333
 Ghost/Owned Point Ratio:   0.0298517 | 

Preprocessing phase:
       Preproc. Time (s):    0.482994 |   Preproc. Time (%):    0.109927

Compute phase:
        Compute Time (s):     436.468 |    Compute Time (%):     99.3377
         Iteration count:        3679 |         Avg. s/iter:    0.118638
     Core-s/iter/Mpoints:     23.0283 |           Mpoints/s:    0.521099

Output phase:
         Output Time (s):     2.42696 |     Output Time (%):    0.552362
            Output count:           1 |       Avg. s/output:     2.42696
 Restart Aggr. BW (MB/s):      829634 |           MB/s/core:     69136.1
-------------------------------------------------------------------------


------------------------- Exit Success (SU2_CFD) ------------------------

