
-------------------------------------------------------------------------
|    ___ _   _ ___                                                      |
|   / __| | | |_  )   Release 8.0.1 "Harrier"                           |
|   \__ \ |_| |/ /                                                      |
|   |___/\___//___|   Suite (Computational Fluid Dynamics Code)         |
|                                                                       |
-------------------------------------------------------------------------
| SU2 Project Website: https://su2code.github.io                        |
|                                                                       |
| The SU2 Project is maintained by the SU2 Foundation                   |
| (http://su2foundation.org)                                            |
-------------------------------------------------------------------------
| Copyright 2012-2024, SU2 Contributors                                 |
|                                                                       |
| SU2 is free software; you can redistribute it and/or                  |
| modify it under the terms of the GNU Lesser General Public            |
| License as published by the Free Software Foundation; either          |
| version 2.1 of the License, or (at your option) any later version.    |
|                                                                       |
| SU2 is distributed in the hope that it will be useful,                |
| but WITHOUT ANY WARRANTY; without even the implied warranty of        |
| MERCHANTABILITY or FITNESS FOR A PARTICULAR PURPOSE. See the GNU      |
| Lesser General Public License for more details.                       |
|                                                                       |
| You should have received a copy of the GNU Lesser General Public      |
| License along with SU2. If not, see <http://www.gnu.org/licenses/>.   |
-------------------------------------------------------------------------

Parsing config file for zone 0

----------------- Physical Case Definition ( Zone 0 ) -------------------
Compressible RANS equations.
Turbulence model: Spalart-Allmaras-noft2-BCM
Hybrid RANS/LES: No Hybrid RANS/LES
Mach number: 0.5.
Angle of attack (AoA): -40 deg, and angle of sideslip (AoS): 0 deg.
Reynolds number: 600000. Reference length 1.00141.
No restart solution, use the values at infinity (freestream).
Dimensional simulation.
The reference area will be computed using y(2D) or z(3D) projection.
The semi-span will be computed using the max y(3D) value.
The reference length is 1.00141 m.
Reference origin for moment evaluation is (0, 0, 0).
Surface(s) where the force coefficients are evaluated: blade1.

Surface(s) plotted in the output file: blade1.
Surface(s) to be analyzed in detail: inlet, outlet, blade1.
Input mesh file name: cascade2D_databladeVALIDATION_Blade_15.su2

--------------- Space Numerical Integration ( Zone 0 ) ------------------
Jameson-Schmidt-Turkel scheme (2nd order in space) for the flow inviscid terms.
JST viscous coefficients (2nd & 4th): 0.5, 0.02.
The method includes a grid stretching correction (p = 0.3).
Scalar upwind solver for the turbulence model.
First order integration in space.
Average of gradients with correction (viscous flow terms).
Average of gradients with correction (viscous turbulence terms).
Gradient for upwind reconstruction: inverse-distance weighted Least-Squares.
Gradient for viscous and source terms: inverse-distance weighted Least-Squares.

--------------- Time Numerical Integration  ( Zone 0 ) ------------------
Local time stepping (steady state simulation).
Euler implicit method for the flow equations.
FGMRES is used for solving the linear system.
Using a LU-SGS preconditioning.
Convergence criteria of the linear solver: 0.0001.
Max number of linear iterations: 10.
V Multigrid Cycle, with 3 multigrid levels.
Damping factor for the residual restriction: 0.75.
Damping factor for the correction prolongation: 0.75.
CFL adaptation. Factor down: 0.1, factor up: 1.2,
                lower limit: 0.1, upper limit: 100,
                acceptable linear residual: 0.001.
+-------------------------------------------+
|  MG Level| Presmooth|PostSmooth|CorrectSmo|
+-------------------------------------------+
|         0|         1|         0|         1|
|         1|         2|         2|         2|
|         2|         3|         3|         3|
|         3|         3|         0|         0|
+-------------------------------------------+
Courant-Friedrichs-Lewy number:       12
Euler implicit time integration for the turbulence model.

------------------ Convergence Criteria  ( Zone 0 ) ---------------------
Maximum number of solver subiterations: 7000.
Begin convergence monitoring at iteration 500.
Residual minimum value: 1e-7.
Cauchy series min. value: 1e-10.
Number of Cauchy elements: 100.
Begin windowed time average at iteration 0.

-------------------- Output Information ( Zone 0 ) ----------------------
File writing frequency: 
+------------------------------------+
|                     File| Frequency|
+------------------------------------+
|                  RESTART|        50|
|                 PARAVIEW|        50|
|         SURFACE_PARAVIEW|        50|
|                      CSV|        50|
|              SURFACE_CSV|        50|
+------------------------------------+
Writing the convergence history file every 1 inner iterations.
Writing the screen convergence history every 10 inner iterations.
The tabular file format is CSV (.csv).
Convergence history file name: history_databladeVALIDATION_Blade_15.
Forces breakdown file name: forces_breakdown.dat.
Surface file name: surface_flowdatabladeVALIDATION_Blade_15.
Volume file name: volume_flow_databladeVALIDATION_Blade_15.
Restart file name: restart_flow_databladeVALIDATION_Blade_15.dat.

------------- Config File Boundary Information ( Zone 0 ) ---------------
+-----------------------------------------------------------------------+
|                        Marker Type|                        Marker Name|
+-----------------------------------------------------------------------+
|                  Periodic boundary|               symmetricWallsBOTTOM|
|                                   |                  symmetricWallsTOP|
+-----------------------------------------------------------------------+
|                     Inlet boundary|                              inlet|
+-----------------------------------------------------------------------+
|                    Outlet boundary|                             outlet|
+-----------------------------------------------------------------------+
|                     Heat flux wall|                             blade1|
|                                   |                             blade2|
+-----------------------------------------------------------------------+

-------------------- Output Preprocessing ( Zone 0 ) --------------------
  Info: Ignoring the following screen output fields:
  LINSOL_ITER_TRANS, LINSOL_RESIDUAL_TRANS
Screen output fields: INNER_ITER, WALL_TIME, RMS_DENSITY
  Info: Ignoring the following history output groups:
  RMS_TKE, RMS_DISSIPATION
History output group(s): INNER_ITER, WALL_TIME, RMS_DENSITY, RMS_MOMENTUM-X, RMS_ENERGY, LINSOL, CFL_NUMBER, FLOW_COEFF_SURF, AERO_COEFF_SURF
Convergence field(s): RMS_DENSITY
Warning: No (valid) fields chosen for time convergence monitoring. Time convergence monitoring inactive.
Volume output fields: COORDINATES, SOLUTION, PRIMITIVE, RESIDUAL, TIMESTEP, MESH_QUALITY, VORTEX_IDENTIFICATION

------------------- Geometry Preprocessing ( Zone 0 ) -------------------
Two dimensional problem.
64639 grid points before partitioning.
97722 volume elements before partitioning.
5 surface markers.
29 boundary elements in index 0 (Marker = inlet).
331 boundary elements in index 1 (Marker = symmetricWallsBOTTOM).
331 boundary elements in index 2 (Marker = symmetricWallsTOP).
29 boundary elements in index 3 (Marker = outlet).
1186 boundary elements in index 4 (Marker = blade1).
Executing the partitioning functions.
Building the graph adjacency structure.
Calling ParMETIS... graph partitioning complete (1522 edge cuts).
Distributing ParMETIS coloring.
Rebalancing vertices.
Rebalancing volume element connectivity.
Rebalancing markers and surface elements.
66528 vertices including ghost points. 
99234 interior elements including halo cells. 
69231 triangles.
30003 quadrilaterals.
Establishing MPI communication patterns.
Setting point connectivity.
Renumbering points (Reverse Cuthill McKee Ordering).
Recomputing point connectivity.
Setting element connectivity.
Checking the numerical grid orientation.
All volume elements are correctly orientend.
There has been a re-orientation of 962 LINE surface elements.
Identifying edges and vertices.
Setting the control volume structure.
Area of the computational grid: 3.82503.
Searching for the closest normal neighbors to the surfaces.
Storing a mapping from global to local point index.
Compute the surface curvature.
Max K: 139.537. Mean K: 3.98372. Standard deviation K: 13.7509.
Checking for periodicity.
WARNING: Periodicity has been detected. Disabling multigrid. 
Computing mesh quality statistics for the dual control volumes.
+--------------------------------------------------------------+
|           Mesh Quality Metric|        Minimum|        Maximum|
+--------------------------------------------------------------+
|    Orthogonality Angle (deg.)|        46.0785|             90|
|     CV Face Area Aspect Ratio|        1.00008|        307.453|
|           CV Sub-Volume Ratio|              1|          36.79|
+--------------------------------------------------------------+
Finding max control volume width.
Communicating number of neighbors.
Reference length = 1.02269 m.
Wetted area = 3.03605 m.
Area projection in the x-plane = 0.95618 m, y-plane = 1.02269 m.
Max. coordinate in the x-direction = 1.01321 m, y-direction = 0.610412 m.
Min. coordinate in the x-direction = -0.00951093 m, y-direction = -0.332486 m.
Matching the periodic boundary points for marker pair 1.
 Matched 664 points with a max distance of: 1.33216e-13.
Computing wall distances.

-------------------- Solver Preprocessing ( Zone 0 ) --------------------
Viscous flow: Computing pressure using the ideal gas law
based on the free-stream temperature and a density computed
from the Reynolds number.
Force coefficients computed using free-stream values.

-- Models:
+------------------------------------------------------------------------------+
|          Viscosity Model|        Conductivity Model|              Fluid Model|
+------------------------------------------------------------------------------+
|               SUTHERLAND|          CONSTANT_PRANDTL|                IDEAL_GAS|
+------------------------------------------------------------------------------+
-- Fluid properties:
+------------------------------------------------------------------------------+
|                  Name|    Dim. value|    Ref. value|      Unit|Non-dim. value|
+------------------------------------------------------------------------------+
|        Ref. Viscosity|     1.716e-05|             1|   N.s/m^2|     1.716e-05|
|      Sutherland Temp.|        273.15|             1|         K|        273.15|
|     Sutherland Const.|         110.4|             1|         K|         110.4|
+------------------------------------------------------------------------------+
|        Prandtl (Lam.)|             -|             -|         -|          0.72|
|       Prandtl (Turb.)|             -|             -|         -|           0.9|
+------------------------------------------------------------------------------+
|          Gas Constant|       287.058|             1|  N.m/kg.K|       287.058|
|      Spec. Heat Ratio|             -|             -|         -|           1.4|
+------------------------------------------------------------------------------+
-- Initial and free-stream conditions:
+------------------------------------------------------------------------------+
|                  Name|    Dim. value|    Ref. value|      Unit|Non-dim. value|
+------------------------------------------------------------------------------+
|       Static Pressure|       5486.07|             1|        Pa|       5486.07|
|               Density|     0.0637046|             1|    kg/m^3|     0.0637046|
|           Temperature|           300|             1|         K|           300|
|          Total Energy|        230364|             1|   m^2/s^2|        230364|
|            Velocity-X|       132.994|             1|       m/s|       132.994|
|            Velocity-Y|      -111.596|             1|       m/s|      -111.596|
|    Velocity Magnitude|       173.612|             1|       m/s|       173.612|
+------------------------------------------------------------------------------+
|             Viscosity|   1.84592e-05|             1|   N.s/m^2|   1.84592e-05|
|          Conductivity|             -|             1|   W/m^2.K|             -|
|     Turb. Kin. Energy|       55.3843|             1|   m^2/s^2|       55.3843|
|     Spec. Dissipation|   1.91137e+06|             1|       1/s|   1.91137e+06|
+------------------------------------------------------------------------------+
|           Mach Number|             -|             -|         -|           0.5|
|       Reynolds Number|             -|             -|         -|        600000|
+------------------------------------------------------------------------------+
Initialize Jacobian structure (Navier-Stokes). MG level: 0.
Initialize Jacobian structure (SA model).

------------------- Numerics Preprocessing ( Zone 0 ) -------------------

----------------- Integration Preprocessing ( Zone 0 ) ------------------

------------------- Iteration Preprocessing ( Zone 0 ) ------------------
Euler/Navier-Stokes/RANS fluid iteration.

------------------------------ Begin Solver -----------------------------

Simulation Run using the Single-zone Driver
WARNING: SU2 was not compiled for an AVX-capable architecture. Performance could be better,
         see https://su2code.github.io/docs_v7/Build-SU2-Linux-MacOS/#compiler-optimizations
+--------------------------------------+
|  Inner_Iter|   Time(sec)|    rms[Rho]|
+--------------------------------------+
|           0|  9.3341e-02|   -2.472779|
|          10|  7.3921e-02|   -3.118459|
|          20|  7.9179e-02|   -2.936430|
|          30|  8.0068e-02|   -2.970627|
|          40|  7.7152e-02|   -2.894001|
|          50|  7.7724e-02|   -2.830443|
+-----------------------------------------------------------------------+
|        File Writing Summary       |              Filename             |
+-----------------------------------------------------------------------+
|SU2 binary restart                 |restart_flow_databladeVALIDATION_Blade_15.dat|
|                                   |                     (13602.6 MB/s)|
|Paraview                           |volume_flow_databladeVALIDATION_Blade_15.vtu|
|                                   |                     (835.683 MB/s)|
|Paraview surface                   |surface_flowdatabladeVALIDATION_Blade_15.vtu|
|                                   |                       (76.98 MB/s)|
|SU2 ASCII restart                  |restart_flow_databladeVALIDATION_Blade_15.csv|
|                                   |                     (20.6946 MB/s)|
|CSV file                           |surface_flowdatabladeVALIDATION_Blade_15.csv|
|                                   |                     (18.9489 MB/s)|
+-----------------------------------------------------------------------+
+--------------------------------------+
|  Inner_Iter|   Time(sec)|    rms[Rho]|
+--------------------------------------+
|          60|  1.2271e-01|   -2.958434|
|          70|  1.1594e-01|   -3.009408|
|          80|  1.1292e-01|   -2.943170|
|          90|  1.1014e-01|   -3.057778|
|         100|  1.0692e-01|   -3.116538|
+-----------------------------------------------------------------------+
|        File Writing Summary       |              Filename             |
+-----------------------------------------------------------------------+
|SU2 binary restart                 |restart_flow_databladeVALIDATION_Blade_15.dat|
|                                   |                     (1337.49 MB/s)|
|Paraview                           |volume_flow_databladeVALIDATION_Blade_15.vtu|
|                                   |                      (563.15 MB/s)|
|Paraview surface                   |surface_flowdatabladeVALIDATION_Blade_15.vtu|
|                                   |                     (29.9657 MB/s)|
|SU2 ASCII restart                  |restart_flow_databladeVALIDATION_Blade_15.csv|
|                                   |                     (16.9556 MB/s)|
|CSV file                           |surface_flowdatabladeVALIDATION_Blade_15.csv|
|                                   |                     (16.8326 MB/s)|
+-----------------------------------------------------------------------+
+--------------------------------------+
|  Inner_Iter|   Time(sec)|    rms[Rho]|
+--------------------------------------+
|         110|  1.3598e-01|   -2.962369|
|         120|  1.3525e-01|   -3.021770|
|         130|  1.3495e-01|   -3.038637|
|         140|  1.3289e-01|   -3.105455|
|         150|  1.2961e-01|   -3.152665|
+-----------------------------------------------------------------------+
|        File Writing Summary       |              Filename             |
+-----------------------------------------------------------------------+
|SU2 binary restart                 |restart_flow_databladeVALIDATION_Blade_15.dat|
|                                   |                     (10273.1 MB/s)|
|Paraview                           |volume_flow_databladeVALIDATION_Blade_15.vtu|
|                                   |                      (881.67 MB/s)|
|Paraview surface                   |surface_flowdatabladeVALIDATION_Blade_15.vtu|
|                                   |                     (81.5582 MB/s)|
|SU2 ASCII restart                  |restart_flow_databladeVALIDATION_Blade_15.csv|
|                                   |                     (19.6995 MB/s)|
|CSV file                           |surface_flowdatabladeVALIDATION_Blade_15.csv|
|                                   |                     (20.6607 MB/s)|
+-----------------------------------------------------------------------+
+--------------------------------------+
|  Inner_Iter|   Time(sec)|    rms[Rho]|
+--------------------------------------+
|         160|  1.4262e-01|   -3.215361|
|         170|  1.3800e-01|   -3.252960|
|         180|  1.3456e-01|   -3.171170|
|         190|  1.3115e-01|   -3.246009|
|         200|  1.2785e-01|   -3.301045|
+-----------------------------------------------------------------------+
|        File Writing Summary       |              Filename             |
+-----------------------------------------------------------------------+
|SU2 binary restart                 |restart_flow_databladeVALIDATION_Blade_15.dat|
|                                   |                     (12927.1 MB/s)|
|Paraview                           |volume_flow_databladeVALIDATION_Blade_15.vtu|
|                                   |                     (931.023 MB/s)|
|Paraview surface                   |surface_flowdatabladeVALIDATION_Blade_15.vtu|
|                                   |                     (89.0602 MB/s)|
|SU2 ASCII restart                  |restart_flow_databladeVALIDATION_Blade_15.csv|
|                                   |                     (21.2848 MB/s)|
|CSV file                           |surface_flowdatabladeVALIDATION_Blade_15.csv|
|                                   |                     (19.9098 MB/s)|
+-----------------------------------------------------------------------+
+--------------------------------------+
|  Inner_Iter|   Time(sec)|    rms[Rho]|
+--------------------------------------+
|         210|  1.3661e-01|   -3.272666|
|         220|  1.3380e-01|   -3.275464|
|         230|  1.3064e-01|   -3.374150|
|         240|  1.2781e-01|   -3.360679|
|         250|  1.2568e-01|   -3.226022|
+-----------------------------------------------------------------------+
|        File Writing Summary       |              Filename             |
+-----------------------------------------------------------------------+
|SU2 binary restart                 |restart_flow_databladeVALIDATION_Blade_15.dat|
|                                   |                     (14602.8 MB/s)|
|Paraview                           |volume_flow_databladeVALIDATION_Blade_15.vtu|
|                                   |                     (998.612 MB/s)|
|Paraview surface                   |surface_flowdatabladeVALIDATION_Blade_15.vtu|
|                                   |                     (97.6966 MB/s)|
|SU2 ASCII restart                  |restart_flow_databladeVALIDATION_Blade_15.csv|
|                                   |                     (21.4695 MB/s)|
|CSV file                           |surface_flowdatabladeVALIDATION_Blade_15.csv|
|                                   |                     (21.7282 MB/s)|
+-----------------------------------------------------------------------+
+--------------------------------------+
|  Inner_Iter|   Time(sec)|    rms[Rho]|
+--------------------------------------+
|         260|  1.3274e-01|   -3.283458|
|         270|  1.3027e-01|   -3.359489|
|         280|  1.2833e-01|   -3.069417|
|         290|  1.2651e-01|   -3.084368|
|         300|  1.2457e-01|   -3.237949|
+-----------------------------------------------------------------------+
|        File Writing Summary       |              Filename             |
+-----------------------------------------------------------------------+
|SU2 binary restart                 |restart_flow_databladeVALIDATION_Blade_15.dat|
|                                   |                     (12096.6 MB/s)|
|Paraview                           |volume_flow_databladeVALIDATION_Blade_15.vtu|
|                                   |                     (1065.31 MB/s)|
|Paraview surface                   |surface_flowdatabladeVALIDATION_Blade_15.vtu|
|                                   |                     (99.0371 MB/s)|
|SU2 ASCII restart                  |restart_flow_databladeVALIDATION_Blade_15.csv|
|                                   |                     (20.8767 MB/s)|
|CSV file                           |surface_flowdatabladeVALIDATION_Blade_15.csv|
|                                   |                     (22.3374 MB/s)|
+-----------------------------------------------------------------------+
+--------------------------------------+
|  Inner_Iter|   Time(sec)|    rms[Rho]|
+--------------------------------------+
|         310|  1.3018e-01|   -3.029185|
|         320|  1.2740e-01|   -3.178816|
|         330|  1.2536e-01|   -3.168405|
|         340|  1.2394e-01|   -3.191296|
|         350|  1.2260e-01|   -3.042296|
+-----------------------------------------------------------------------+
|        File Writing Summary       |              Filename             |
+-----------------------------------------------------------------------+
|SU2 binary restart                 |restart_flow_databladeVALIDATION_Blade_15.dat|
|                                   |                     (11936.8 MB/s)|
|Paraview                           |volume_flow_databladeVALIDATION_Blade_15.vtu|
|                                   |                     (988.521 MB/s)|
|Paraview surface                   |surface_flowdatabladeVALIDATION_Blade_15.vtu|
|                                   |                     (107.975 MB/s)|
|SU2 ASCII restart                  |restart_flow_databladeVALIDATION_Blade_15.csv|
|                                   |                     (21.7905 MB/s)|
|CSV file                           |surface_flowdatabladeVALIDATION_Blade_15.csv|
|                                   |                     (20.9366 MB/s)|
+-----------------------------------------------------------------------+
+--------------------------------------+
|  Inner_Iter|   Time(sec)|    rms[Rho]|
+--------------------------------------+
|         360|  1.2769e-01|   -3.145869|
|         370|  1.2595e-01|   -3.248187|
|         380|  1.2465e-01|   -3.146298|
|         390|  1.2337e-01|   -3.180634|
|         400|  1.2204e-01|   -3.380048|
+-----------------------------------------------------------------------+
|        File Writing Summary       |              Filename             |
+-----------------------------------------------------------------------+
|SU2 binary restart                 |restart_flow_databladeVALIDATION_Blade_15.dat|
|                                   |                     (12146.5 MB/s)|
|Paraview                           |volume_flow_databladeVALIDATION_Blade_15.vtu|
|                                   |                     (1044.09 MB/s)|
|Paraview surface                   |surface_flowdatabladeVALIDATION_Blade_15.vtu|
|                                   |                      (84.402 MB/s)|
|SU2 ASCII restart                  |restart_flow_databladeVALIDATION_Blade_15.csv|
|                                   |                     (21.3146 MB/s)|
|CSV file                           |surface_flowdatabladeVALIDATION_Blade_15.csv|
|                                   |                     (19.9671 MB/s)|
+-----------------------------------------------------------------------+
+--------------------------------------+
|  Inner_Iter|   Time(sec)|    rms[Rho]|
+--------------------------------------+
|         410|  1.2661e-01|   -3.437477|
|         420|  1.2523e-01|   -3.364204|
|         430|  1.2403e-01|   -3.407277|
|         440|  1.2295e-01|   -3.406800|
|         450|  1.2175e-01|   -3.501378|
+-----------------------------------------------------------------------+
|        File Writing Summary       |              Filename             |
+-----------------------------------------------------------------------+
|SU2 binary restart                 |restart_flow_databladeVALIDATION_Blade_15.dat|
|                                   |                     (10728.7 MB/s)|
|Paraview                           |volume_flow_databladeVALIDATION_Blade_15.vtu|
|                                   |                      (1015.8 MB/s)|
|Paraview surface                   |surface_flowdatabladeVALIDATION_Blade_15.vtu|
|                                   |                     (98.8017 MB/s)|
|SU2 ASCII restart                  |restart_flow_databladeVALIDATION_Blade_15.csv|
|                                   |                     (21.4514 MB/s)|
|CSV file                           |surface_flowdatabladeVALIDATION_Blade_15.csv|
|                                   |                     (20.7282 MB/s)|
+-----------------------------------------------------------------------+
+--------------------------------------+
|  Inner_Iter|   Time(sec)|    rms[Rho]|
+--------------------------------------+
|         460|  1.2575e-01|   -3.575698|
|         470|  1.2458e-01|   -3.475110|
|         480|  1.2350e-01|   -3.417615|
|         490|  1.2231e-01|   -3.613552|
|         500|  1.2117e-01|   -3.603269|
+-----------------------------------------------------------------------+
|        File Writing Summary       |              Filename             |
+-----------------------------------------------------------------------+
|SU2 binary restart                 |restart_flow_databladeVALIDATION_Blade_15.dat|
|                                   |                     (12854.1 MB/s)|
|Paraview                           |volume_flow_databladeVALIDATION_Blade_15.vtu|
|                                   |                     (1027.95 MB/s)|
|Paraview surface                   |surface_flowdatabladeVALIDATION_Blade_15.vtu|
|                                   |                     (112.615 MB/s)|
|SU2 ASCII restart                  |restart_flow_databladeVALIDATION_Blade_15.csv|
|                                   |                     (21.8601 MB/s)|
|CSV file                           |surface_flowdatabladeVALIDATION_Blade_15.csv|
|                                   |                     (20.6898 MB/s)|
+-----------------------------------------------------------------------+
+--------------------------------------+
|  Inner_Iter|   Time(sec)|    rms[Rho]|
+--------------------------------------+
|         510|  1.2486e-01|   -3.462424|
|         520|  1.2387e-01|   -3.488586|
|         530|  1.2308e-01|   -3.479665|
|         540|  1.2209e-01|   -3.753562|
|         550|  1.2128e-01|   -3.651805|
+-----------------------------------------------------------------------+
|        File Writing Summary       |              Filename             |
+-----------------------------------------------------------------------+
|SU2 binary restart                 |restart_flow_databladeVALIDATION_Blade_15.dat|
|                                   |                     (6847.09 MB/s)|
|Paraview                           |volume_flow_databladeVALIDATION_Blade_15.vtu|
|                                   |                     (1071.94 MB/s)|
|Paraview surface                   |surface_flowdatabladeVALIDATION_Blade_15.vtu|
|                                   |                     (95.6273 MB/s)|
|SU2 ASCII restart                  |restart_flow_databladeVALIDATION_Blade_15.csv|
|                                   |                     (21.4666 MB/s)|
|CSV file                           |surface_flowdatabladeVALIDATION_Blade_15.csv|
|                                   |                     (20.9533 MB/s)|
+-----------------------------------------------------------------------+
+--------------------------------------+
|  Inner_Iter|   Time(sec)|    rms[Rho]|
+--------------------------------------+
|         560|  1.2464e-01|   -3.860408|
|         570|  1.2371e-01|   -3.924867|
|         580|  1.2288e-01|   -3.760556|
|         590|  1.2212e-01|   -3.723982|
|         600|  1.2114e-01|   -3.791421|
+-----------------------------------------------------------------------+
|        File Writing Summary       |              Filename             |
+-----------------------------------------------------------------------+
|SU2 binary restart                 |restart_flow_databladeVALIDATION_Blade_15.dat|
|                                   |                     (12108.6 MB/s)|
|Paraview                           |volume_flow_databladeVALIDATION_Blade_15.vtu|
|                                   |                     (934.518 MB/s)|
|Paraview surface                   |surface_flowdatabladeVALIDATION_Blade_15.vtu|
|                                   |                      (102.76 MB/s)|
|SU2 ASCII restart                  |restart_flow_databladeVALIDATION_Blade_15.csv|
|                                   |                     (21.4793 MB/s)|
|CSV file                           |surface_flowdatabladeVALIDATION_Blade_15.csv|
|                                   |                     (18.4659 MB/s)|
+-----------------------------------------------------------------------+
+--------------------------------------+
|  Inner_Iter|   Time(sec)|    rms[Rho]|
+--------------------------------------+
|         610|  1.2426e-01|   -3.713580|
|         620|  1.2339e-01|   -3.625047|
|         630|  1.2255e-01|   -3.638315|
|         640|  1.2160e-01|   -3.676401|
|         650|  1.2078e-01|   -3.584134|
+-----------------------------------------------------------------------+
|        File Writing Summary       |              Filename             |
+-----------------------------------------------------------------------+
|SU2 binary restart                 |restart_flow_databladeVALIDATION_Blade_15.dat|
|                                   |                     (12824.2 MB/s)|
|Paraview                           |volume_flow_databladeVALIDATION_Blade_15.vtu|
|                                   |                     (950.932 MB/s)|
|Paraview surface                   |surface_flowdatabladeVALIDATION_Blade_15.vtu|
|                                   |                     (134.557 MB/s)|
|SU2 ASCII restart                  |restart_flow_databladeVALIDATION_Blade_15.csv|
|                                   |                     (21.1668 MB/s)|
|CSV file                           |surface_flowdatabladeVALIDATION_Blade_15.csv|
|                                   |                     (20.1734 MB/s)|
+-----------------------------------------------------------------------+
+--------------------------------------+
|  Inner_Iter|   Time(sec)|    rms[Rho]|
+--------------------------------------+
|         660|  1.2370e-01|   -3.548603|
|         670|  1.2242e-01|   -3.546186|
|         680|  1.2133e-01|   -3.645494|
|         690|  1.2062e-01|   -3.549114|
|         700|  1.1982e-01|   -3.686268|
+-----------------------------------------------------------------------+
|        File Writing Summary       |              Filename             |
+-----------------------------------------------------------------------+
|SU2 binary restart                 |restart_flow_databladeVALIDATION_Blade_15.dat|
|                                   |                     (12643.8 MB/s)|
|Paraview                           |volume_flow_databladeVALIDATION_Blade_15.vtu|
|                                   |                     (1024.71 MB/s)|
|Paraview surface                   |surface_flowdatabladeVALIDATION_Blade_15.vtu|
|                                   |                     (93.0511 MB/s)|
|SU2 ASCII restart                  |restart_flow_databladeVALIDATION_Blade_15.csv|
|                                   |                     (21.1582 MB/s)|
|CSV file                           |surface_flowdatabladeVALIDATION_Blade_15.csv|
|                                   |                     (19.4813 MB/s)|
+-----------------------------------------------------------------------+
+--------------------------------------+
|  Inner_Iter|   Time(sec)|    rms[Rho]|
+--------------------------------------+
|         710|  1.2249e-01|   -3.697506|
|         720|  1.2181e-01|   -3.552253|
|         730|  1.2108e-01|   -3.668912|
|         740|  1.2036e-01|   -3.699723|
|         750|  1.1970e-01|   -3.575216|
+-----------------------------------------------------------------------+
|        File Writing Summary       |              Filename             |
+-----------------------------------------------------------------------+
|SU2 binary restart                 |restart_flow_databladeVALIDATION_Blade_15.dat|
|                                   |                       (11941 MB/s)|
|Paraview                           |volume_flow_databladeVALIDATION_Blade_15.vtu|
|                                   |                     (1006.46 MB/s)|
|Paraview surface                   |surface_flowdatabladeVALIDATION_Blade_15.vtu|
|                                   |                     (82.4479 MB/s)|
|SU2 ASCII restart                  |restart_flow_databladeVALIDATION_Blade_15.csv|
|                                   |                     (21.3325 MB/s)|
|CSV file                           |surface_flowdatabladeVALIDATION_Blade_15.csv|
|                                   |                      (20.978 MB/s)|
+-----------------------------------------------------------------------+
+--------------------------------------+
|  Inner_Iter|   Time(sec)|    rms[Rho]|
+--------------------------------------+
|         760|  1.2227e-01|   -3.625300|
|         770|  1.2148e-01|   -3.752115|
|         780|  1.2076e-01|   -3.677492|
|         790|  1.2014e-01|   -3.515583|
|         800|  1.1952e-01|   -3.641168|
+-----------------------------------------------------------------------+
|        File Writing Summary       |              Filename             |
+-----------------------------------------------------------------------+
|SU2 binary restart                 |restart_flow_databladeVALIDATION_Blade_15.dat|
|                                   |                     (12767.6 MB/s)|
|Paraview                           |volume_flow_databladeVALIDATION_Blade_15.vtu|
|                                   |                     (873.749 MB/s)|
|Paraview surface                   |surface_flowdatabladeVALIDATION_Blade_15.vtu|
|                                   |                     (96.5812 MB/s)|
|SU2 ASCII restart                  |restart_flow_databladeVALIDATION_Blade_15.csv|
|                                   |                     (21.1478 MB/s)|
|CSV file                           |surface_flowdatabladeVALIDATION_Blade_15.csv|
|                                   |                     (20.9158 MB/s)|
+-----------------------------------------------------------------------+
+--------------------------------------+
|  Inner_Iter|   Time(sec)|    rms[Rho]|
+--------------------------------------+
|         810|  1.2187e-01|   -3.691041|
|         820|  1.2120e-01|   -3.619604|
|         830|  1.2062e-01|   -3.593848|
|         840|  1.1998e-01|   -3.787513|
|         850|  1.1932e-01|   -3.840329|
+-----------------------------------------------------------------------+
|        File Writing Summary       |              Filename             |
+-----------------------------------------------------------------------+
|SU2 binary restart                 |restart_flow_databladeVALIDATION_Blade_15.dat|
|                                   |                     (10414.1 MB/s)|
|Paraview                           |volume_flow_databladeVALIDATION_Blade_15.vtu|
|                                   |                     (1154.81 MB/s)|
|Paraview surface                   |surface_flowdatabladeVALIDATION_Blade_15.vtu|
|                                   |                     (102.909 MB/s)|
|SU2 ASCII restart                  |restart_flow_databladeVALIDATION_Blade_15.csv|
|                                   |                     (21.1601 MB/s)|
|CSV file                           |surface_flowdatabladeVALIDATION_Blade_15.csv|
|                                   |                     (20.5633 MB/s)|
+-----------------------------------------------------------------------+
+--------------------------------------+
|  Inner_Iter|   Time(sec)|    rms[Rho]|
+--------------------------------------+
|         860|  1.2165e-01|   -3.646312|
|         870|  1.2113e-01|   -3.670236|
|         880|  1.2071e-01|   -3.628638|
|         890|  1.2011e-01|   -3.850215|
|         900|  1.1969e-01|   -3.567086|
+-----------------------------------------------------------------------+
|        File Writing Summary       |              Filename             |
+-----------------------------------------------------------------------+
|SU2 binary restart                 |restart_flow_databladeVALIDATION_Blade_15.dat|
|                                   |                       (12504 MB/s)|
|Paraview                           |volume_flow_databladeVALIDATION_Blade_15.vtu|
|                                   |                     (934.593 MB/s)|
|Paraview surface                   |surface_flowdatabladeVALIDATION_Blade_15.vtu|
|                                   |                     (99.3595 MB/s)|
|SU2 ASCII restart                  |restart_flow_databladeVALIDATION_Blade_15.csv|
|                                   |                     (21.1785 MB/s)|
|CSV file                           |surface_flowdatabladeVALIDATION_Blade_15.csv|
|                                   |                     (21.1823 MB/s)|
+-----------------------------------------------------------------------+
+--------------------------------------+
|  Inner_Iter|   Time(sec)|    rms[Rho]|
+--------------------------------------+
|         910|  1.2184e-01|   -3.813915|
|         920|  1.2119e-01|   -3.792360|
|         930|  1.2071e-01|   -3.627128|
|         940|  1.2019e-01|   -3.818459|
|         950|  1.1958e-01|   -3.951337|
+-----------------------------------------------------------------------+
|        File Writing Summary       |              Filename             |
+-----------------------------------------------------------------------+
|SU2 binary restart                 |restart_flow_databladeVALIDATION_Blade_15.dat|
|                                   |                       (10802 MB/s)|
|Paraview                           |volume_flow_databladeVALIDATION_Blade_15.vtu|
|                                   |                     (981.493 MB/s)|
|Paraview surface                   |surface_flowdatabladeVALIDATION_Blade_15.vtu|
|                                   |                     (87.2994 MB/s)|
|SU2 ASCII restart                  |restart_flow_databladeVALIDATION_Blade_15.csv|
|                                   |                     (21.5162 MB/s)|
|CSV file                           |surface_flowdatabladeVALIDATION_Blade_15.csv|
|                                   |                     (21.9533 MB/s)|
+-----------------------------------------------------------------------+
+--------------------------------------+
|  Inner_Iter|   Time(sec)|    rms[Rho]|
+--------------------------------------+
|         960|  1.2156e-01|   -3.789243|
|         970|  1.2104e-01|   -3.783133|
|         980|  1.2050e-01|   -3.891557|
|         990|  1.1992e-01|   -3.960282|
|        1000|  1.1947e-01|   -3.758523|
+-----------------------------------------------------------------------+
|        File Writing Summary       |              Filename             |
+-----------------------------------------------------------------------+
|SU2 binary restart                 |restart_flow_databladeVALIDATION_Blade_15.dat|
|                                   |                     (13268.6 MB/s)|
|Paraview                           |volume_flow_databladeVALIDATION_Blade_15.vtu|
|                                   |                     (1014.42 MB/s)|
|Paraview surface                   |surface_flowdatabladeVALIDATION_Blade_15.vtu|
|                                   |                     (127.357 MB/s)|
|SU2 ASCII restart                  |restart_flow_databladeVALIDATION_Blade_15.csv|
|                                   |                     (20.9149 MB/s)|
|CSV file                           |surface_flowdatabladeVALIDATION_Blade_15.csv|
|                                   |                     (21.5247 MB/s)|
+-----------------------------------------------------------------------+
+--------------------------------------+
|  Inner_Iter|   Time(sec)|    rms[Rho]|
+--------------------------------------+
|        1010|  1.2143e-01|   -3.919202|
|        1020|  1.2084e-01|   -4.070995|
|        1030|  1.2034e-01|   -3.906685|
|        1040|  1.1989e-01|   -3.832947|
|        1050|  1.1939e-01|   -4.046270|
+-----------------------------------------------------------------------+
|        File Writing Summary       |              Filename             |
+-----------------------------------------------------------------------+
|SU2 binary restart                 |restart_flow_databladeVALIDATION_Blade_15.dat|
|                                   |                     (12585.1 MB/s)|
|Paraview                           |volume_flow_databladeVALIDATION_Blade_15.vtu|
|                                   |                     (1059.81 MB/s)|
|Paraview surface                   |surface_flowdatabladeVALIDATION_Blade_15.vtu|
|                                   |                     (81.1191 MB/s)|
|SU2 ASCII restart                  |restart_flow_databladeVALIDATION_Blade_15.csv|
|                                   |                     (21.4389 MB/s)|
|CSV file                           |surface_flowdatabladeVALIDATION_Blade_15.csv|
|                                   |                      (20.887 MB/s)|
+-----------------------------------------------------------------------+
+--------------------------------------+
|  Inner_Iter|   Time(sec)|    rms[Rho]|
+--------------------------------------+
|        1060|  1.2113e-01|   -4.092260|
|        1070|  1.2064e-01|   -3.896130|
|        1080|  1.2018e-01|   -3.966745|
|        1090|  1.1968e-01|   -4.204665|
|        1100|  1.1918e-01|   -4.116689|
+-----------------------------------------------------------------------+
|        File Writing Summary       |              Filename             |
+-----------------------------------------------------------------------+
|SU2 binary restart                 |restart_flow_databladeVALIDATION_Blade_15.dat|
|                                   |                     (12018.3 MB/s)|
|Paraview                           |volume_flow_databladeVALIDATION_Blade_15.vtu|
|                                   |                     (1054.72 MB/s)|
|Paraview surface                   |surface_flowdatabladeVALIDATION_Blade_15.vtu|
|                                   |                     (101.634 MB/s)|
|SU2 ASCII restart                  |restart_flow_databladeVALIDATION_Blade_15.csv|
|                                   |                     (21.4282 MB/s)|
|CSV file                           |surface_flowdatabladeVALIDATION_Blade_15.csv|
|                                   |                       (21.09 MB/s)|
+-----------------------------------------------------------------------+
+--------------------------------------+
|  Inner_Iter|   Time(sec)|    rms[Rho]|
+--------------------------------------+
|        1110|  1.2096e-01|   -3.918337|
|        1120|  1.2050e-01|   -4.122392|
|        1130|  1.1998e-01|   -4.204537|
|        1140|  1.1954e-01|   -3.943715|
|        1150|  1.1912e-01|   -4.008135|
+-----------------------------------------------------------------------+
|        File Writing Summary       |              Filename             |
+-----------------------------------------------------------------------+
|SU2 binary restart                 |restart_flow_databladeVALIDATION_Blade_15.dat|
|                                   |                     (12970.3 MB/s)|
|Paraview                           |volume_flow_databladeVALIDATION_Blade_15.vtu|
|                                   |                     (1068.61 MB/s)|
|Paraview surface                   |surface_flowdatabladeVALIDATION_Blade_15.vtu|
|                                   |                     (99.3759 MB/s)|
|SU2 ASCII restart                  |restart_flow_databladeVALIDATION_Blade_15.csv|
|                                   |                     (21.0663 MB/s)|
|CSV file                           |surface_flowdatabladeVALIDATION_Blade_15.csv|
|                                   |                     (19.7783 MB/s)|
+-----------------------------------------------------------------------+
+--------------------------------------+
|  Inner_Iter|   Time(sec)|    rms[Rho]|
+--------------------------------------+
|        1160|  1.2077e-01|   -4.211804|
|        1170|  1.2028e-01|   -4.116281|
|        1180|  1.1986e-01|   -3.891081|
|        1190|  1.1945e-01|   -4.041324|
|        1200|  1.1897e-01|   -4.184710|
+-----------------------------------------------------------------------+
|        File Writing Summary       |              Filename             |
+-----------------------------------------------------------------------+
|SU2 binary restart                 |restart_flow_databladeVALIDATION_Blade_15.dat|
|                                   |                     (1142.71 MB/s)|
|Paraview                           |volume_flow_databladeVALIDATION_Blade_15.vtu|
|                                   |                      (977.68 MB/s)|
|Paraview surface                   |surface_flowdatabladeVALIDATION_Blade_15.vtu|
|                                   |                     (95.8974 MB/s)|
|SU2 ASCII restart                  |restart_flow_databladeVALIDATION_Blade_15.csv|
|                                   |                     (21.4852 MB/s)|
|CSV file                           |surface_flowdatabladeVALIDATION_Blade_15.csv|
|                                   |                     (21.9223 MB/s)|
+-----------------------------------------------------------------------+
+--------------------------------------+
|  Inner_Iter|   Time(sec)|    rms[Rho]|
+--------------------------------------+
|        1210|  1.2053e-01|   -4.067962|
|        1220|  1.2014e-01|   -3.955722|
|        1230|  1.1972e-01|   -4.154937|
|        1240|  1.1928e-01|   -4.232575|
|        1250|  1.1886e-01|   -4.100215|
+-----------------------------------------------------------------------+
|        File Writing Summary       |              Filename             |
+-----------------------------------------------------------------------+
|SU2 binary restart                 |restart_flow_databladeVALIDATION_Blade_15.dat|
|                                   |                     (12423.1 MB/s)|
|Paraview                           |volume_flow_databladeVALIDATION_Blade_15.vtu|
|                                   |                     (989.218 MB/s)|
|Paraview surface                   |surface_flowdatabladeVALIDATION_Blade_15.vtu|
|                                   |                     (99.8617 MB/s)|
|SU2 ASCII restart                  |restart_flow_databladeVALIDATION_Blade_15.csv|
|                                   |                     (21.4144 MB/s)|
|CSV file                           |surface_flowdatabladeVALIDATION_Blade_15.csv|
|                                   |                      (21.961 MB/s)|
+-----------------------------------------------------------------------+
+--------------------------------------+
|  Inner_Iter|   Time(sec)|    rms[Rho]|
+--------------------------------------+
|        1260|  1.2039e-01|   -4.101289|
|        1270|  1.1998e-01|   -4.244547|
|        1280|  1.1953e-01|   -4.383388|
|        1290|  1.1914e-01|   -4.113671|
|        1300|  1.1877e-01|   -4.159783|
+-----------------------------------------------------------------------+
|        File Writing Summary       |              Filename             |
+-----------------------------------------------------------------------+
|SU2 binary restart                 |restart_flow_databladeVALIDATION_Blade_15.dat|
|                                   |                     (9705.07 MB/s)|
|Paraview                           |volume_flow_databladeVALIDATION_Blade_15.vtu|
|                                   |                     (940.432 MB/s)|
|Paraview surface                   |surface_flowdatabladeVALIDATION_Blade_15.vtu|
|                                   |                     (83.1417 MB/s)|
|SU2 ASCII restart                  |restart_flow_databladeVALIDATION_Blade_15.csv|
|                                   |                      (21.374 MB/s)|
|CSV file                           |surface_flowdatabladeVALIDATION_Blade_15.csv|
|                                   |                     (21.4507 MB/s)|
+-----------------------------------------------------------------------+
+--------------------------------------+
|  Inner_Iter|   Time(sec)|    rms[Rho]|
+--------------------------------------+
|        1310|  1.2020e-01|   -4.377933|
|        1320|  1.1978e-01|   -4.331854|
|        1330|  1.1939e-01|   -4.149531|
|        1340|  1.1903e-01|   -4.269844|
|        1350|  1.1860e-01|   -4.456854|
+-----------------------------------------------------------------------+
|        File Writing Summary       |              Filename             |
+-----------------------------------------------------------------------+
|SU2 binary restart                 |restart_flow_databladeVALIDATION_Blade_15.dat|
|                                   |                     (12703.1 MB/s)|
|Paraview                           |volume_flow_databladeVALIDATION_Blade_15.vtu|
|                                   |                     (1015.76 MB/s)|
|Paraview surface                   |surface_flowdatabladeVALIDATION_Blade_15.vtu|
|                                   |                     (103.196 MB/s)|
|SU2 ASCII restart                  |restart_flow_databladeVALIDATION_Blade_15.csv|
|                                   |                     (21.1877 MB/s)|
|CSV file                           |surface_flowdatabladeVALIDATION_Blade_15.csv|
|                                   |                     (20.1066 MB/s)|
+-----------------------------------------------------------------------+
+--------------------------------------+
|  Inner_Iter|   Time(sec)|    rms[Rho]|
+--------------------------------------+
|        1360|  1.2001e-01|   -4.350608|
|        1370|  1.1964e-01|   -4.289644|
|        1380|  1.1929e-01|   -4.379546|
|        1390|  1.1887e-01|   -4.478106|
|        1400|  1.1851e-01|   -4.283247|
+-----------------------------------------------------------------------+
|        File Writing Summary       |              Filename             |
+-----------------------------------------------------------------------+
|SU2 binary restart                 |restart_flow_databladeVALIDATION_Blade_15.dat|
|                                   |                       (12100 MB/s)|
|Paraview                           |volume_flow_databladeVALIDATION_Blade_15.vtu|
|                                   |                     (1083.35 MB/s)|
|Paraview surface                   |surface_flowdatabladeVALIDATION_Blade_15.vtu|
|                                   |                     (104.693 MB/s)|
|SU2 ASCII restart                  |restart_flow_databladeVALIDATION_Blade_15.csv|
|                                   |                     (21.4999 MB/s)|
|CSV file                           |surface_flowdatabladeVALIDATION_Blade_15.csv|
|                                   |                     (20.7867 MB/s)|
+-----------------------------------------------------------------------+
+--------------------------------------+
|  Inner_Iter|   Time(sec)|    rms[Rho]|
+--------------------------------------+
|        1410|  1.1990e-01|   -4.251414|
|        1420|  1.1954e-01|   -4.482654|
|        1430|  1.1914e-01|   -4.534890|
|        1440|  1.1881e-01|   -4.324105|
|        1450|  1.1851e-01|   -4.366898|
+-----------------------------------------------------------------------+
|        File Writing Summary       |              Filename             |
+-----------------------------------------------------------------------+
|SU2 binary restart                 |restart_flow_databladeVALIDATION_Blade_15.dat|
|                                   |                     (11549.3 MB/s)|
|Paraview                           |volume_flow_databladeVALIDATION_Blade_15.vtu|
|                                   |                     (1185.03 MB/s)|
|Paraview surface                   |surface_flowdatabladeVALIDATION_Blade_15.vtu|
|                                   |                     (124.708 MB/s)|
|SU2 ASCII restart                  |restart_flow_databladeVALIDATION_Blade_15.csv|
|                                   |                     (21.3053 MB/s)|
|CSV file                           |surface_flowdatabladeVALIDATION_Blade_15.csv|
|                                   |                     (21.4871 MB/s)|
+-----------------------------------------------------------------------+
+--------------------------------------+
|  Inner_Iter|   Time(sec)|    rms[Rho]|
+--------------------------------------+
|        1460|  1.1980e-01|   -4.559584|
|        1470|  1.1955e-01|   -4.457210|
|        1480|  1.1916e-01|   -4.706617|
|        1490|  1.1881e-01|   -4.720594|
|        1500|  1.1848e-01|   -4.674366|
+-----------------------------------------------------------------------+
|        File Writing Summary       |              Filename             |
+-----------------------------------------------------------------------+
|SU2 binary restart                 |restart_flow_databladeVALIDATION_Blade_15.dat|
|                                   |                     (12763.8 MB/s)|
|Paraview                           |volume_flow_databladeVALIDATION_Blade_15.vtu|
|                                   |                     (1005.59 MB/s)|
|Paraview surface                   |surface_flowdatabladeVALIDATION_Blade_15.vtu|
|                                   |                     (128.401 MB/s)|
|SU2 ASCII restart                  |restart_flow_databladeVALIDATION_Blade_15.csv|
|                                   |                     (22.0529 MB/s)|
|CSV file                           |surface_flowdatabladeVALIDATION_Blade_15.csv|
|                                   |                     (20.9943 MB/s)|
+-----------------------------------------------------------------------+
+--------------------------------------+
|  Inner_Iter|   Time(sec)|    rms[Rho]|
+--------------------------------------+
|        1510|  1.1973e-01|   -4.771518|
|        1520|  1.1935e-01|   -4.865254|
|        1530|  1.1900e-01|   -4.813863|
|        1540|  1.1870e-01|   -4.753940|
|        1550|  1.1838e-01|   -4.861110|
+-----------------------------------------------------------------------+
|        File Writing Summary       |              Filename             |
+-----------------------------------------------------------------------+
|SU2 binary restart                 |restart_flow_databladeVALIDATION_Blade_15.dat|
|                                   |                     (12429.4 MB/s)|
|Paraview                           |volume_flow_databladeVALIDATION_Blade_15.vtu|
|                                   |                     (979.694 MB/s)|
|Paraview surface                   |surface_flowdatabladeVALIDATION_Blade_15.vtu|
|                                   |                     (121.847 MB/s)|
|SU2 ASCII restart                  |restart_flow_databladeVALIDATION_Blade_15.csv|
|                                   |                     (21.4601 MB/s)|
|CSV file                           |surface_flowdatabladeVALIDATION_Blade_15.csv|
|                                   |                     (21.1031 MB/s)|
+-----------------------------------------------------------------------+
+--------------------------------------+
|  Inner_Iter|   Time(sec)|    rms[Rho]|
+--------------------------------------+
|        1560|  1.1956e-01|   -4.936513|
|        1570|  1.1923e-01|   -4.830181|
|        1580|  1.1896e-01|   -4.782509|
|        1590|  1.1860e-01|   -4.910737|
|        1600|  1.1830e-01|   -4.790814|
+-----------------------------------------------------------------------+
|        File Writing Summary       |              Filename             |
+-----------------------------------------------------------------------+
|SU2 binary restart                 |restart_flow_databladeVALIDATION_Blade_15.dat|
|                                   |                     (12843.5 MB/s)|
|Paraview                           |volume_flow_databladeVALIDATION_Blade_15.vtu|
|                                   |                     (1094.92 MB/s)|
|Paraview surface                   |surface_flowdatabladeVALIDATION_Blade_15.vtu|
|                                   |                     (100.763 MB/s)|
|SU2 ASCII restart                  |restart_flow_databladeVALIDATION_Blade_15.csv|
|                                   |                     (21.2043 MB/s)|
|CSV file                           |surface_flowdatabladeVALIDATION_Blade_15.csv|
|                                   |                     (20.9165 MB/s)|
+-----------------------------------------------------------------------+
+--------------------------------------+
|  Inner_Iter|   Time(sec)|    rms[Rho]|
+--------------------------------------+
|        1610|  1.1953e-01|   -4.782866|
|        1620|  1.1919e-01|   -4.944465|
|        1630|  1.1886e-01|   -4.962497|
|        1640|  1.1856e-01|   -4.892179|
|        1650|  1.1831e-01|   -4.886695|
+-----------------------------------------------------------------------+
|        File Writing Summary       |              Filename             |
+-----------------------------------------------------------------------+
|SU2 binary restart                 |restart_flow_databladeVALIDATION_Blade_15.dat|
|                                   |                     (12088.1 MB/s)|
|Paraview                           |volume_flow_databladeVALIDATION_Blade_15.vtu|
|                                   |                     (729.483 MB/s)|
|Paraview surface                   |surface_flowdatabladeVALIDATION_Blade_15.vtu|
|                                   |                     (19.1167 MB/s)|
|SU2 ASCII restart                  |restart_flow_databladeVALIDATION_Blade_15.csv|
|                                   |                     (21.6799 MB/s)|
|CSV file                           |surface_flowdatabladeVALIDATION_Blade_15.csv|
|                                   |                     (20.0402 MB/s)|
+-----------------------------------------------------------------------+
+--------------------------------------+
|  Inner_Iter|   Time(sec)|    rms[Rho]|
+--------------------------------------+
|        1660|  1.1942e-01|   -4.995738|
|        1670|  1.1910e-01|   -4.971053|
|        1680|  1.1883e-01|   -4.878611|
|        1690|  1.1857e-01|   -4.974039|
|        1700|  1.1824e-01|   -5.058857|
+-----------------------------------------------------------------------+
|        File Writing Summary       |              Filename             |
+-----------------------------------------------------------------------+
|SU2 binary restart                 |restart_flow_databladeVALIDATION_Blade_15.dat|
|                                   |                       (12721 MB/s)|
|Paraview                           |volume_flow_databladeVALIDATION_Blade_15.vtu|
|                                   |                     (1060.11 MB/s)|
|Paraview surface                   |surface_flowdatabladeVALIDATION_Blade_15.vtu|
|                                   |                     (91.9333 MB/s)|
|SU2 ASCII restart                  |restart_flow_databladeVALIDATION_Blade_15.csv|
|                                   |                     (21.6545 MB/s)|
|CSV file                           |surface_flowdatabladeVALIDATION_Blade_15.csv|
|                                   |                     (20.0157 MB/s)|
+-----------------------------------------------------------------------+
+--------------------------------------+
|  Inner_Iter|   Time(sec)|    rms[Rho]|
+--------------------------------------+
|        1710|  1.1936e-01|   -5.018792|
|        1720|  1.1911e-01|   -4.901315|
|        1730|  1.1880e-01|   -5.071815|
|        1740|  1.1849e-01|   -5.025396|
|        1750|  1.1823e-01|   -4.930135|
+-----------------------------------------------------------------------+
|        File Writing Summary       |              Filename             |
+-----------------------------------------------------------------------+
|SU2 binary restart                 |restart_flow_databladeVALIDATION_Blade_15.dat|
|                                   |                     (10421.7 MB/s)|
|Paraview                           |volume_flow_databladeVALIDATION_Blade_15.vtu|
|                                   |                     (1074.26 MB/s)|
|Paraview surface                   |surface_flowdatabladeVALIDATION_Blade_15.vtu|
|                                   |                     (99.2818 MB/s)|
|SU2 ASCII restart                  |restart_flow_databladeVALIDATION_Blade_15.csv|
|                                   |                     (21.2202 MB/s)|
|CSV file                           |surface_flowdatabladeVALIDATION_Blade_15.csv|
|                                   |                     (20.5507 MB/s)|
+-----------------------------------------------------------------------+
+--------------------------------------+
|  Inner_Iter|   Time(sec)|    rms[Rho]|
+--------------------------------------+
|        1760|  1.1934e-01|   -4.998155|
|        1770|  1.1902e-01|   -5.073973|
|        1780|  1.1873e-01|   -5.014544|
|        1790|  1.1848e-01|   -4.904602|
|        1800|  1.1820e-01|   -5.106308|
+-----------------------------------------------------------------------+
|        File Writing Summary       |              Filename             |
+-----------------------------------------------------------------------+
|SU2 binary restart                 |restart_flow_databladeVALIDATION_Blade_15.dat|
|                                   |                     (12590.7 MB/s)|
|Paraview                           |volume_flow_databladeVALIDATION_Blade_15.vtu|
|                                   |                     (1016.28 MB/s)|
|Paraview surface                   |surface_flowdatabladeVALIDATION_Blade_15.vtu|
|                                   |                     (96.6587 MB/s)|
|SU2 ASCII restart                  |restart_flow_databladeVALIDATION_Blade_15.csv|
|                                   |                     (21.6328 MB/s)|
|CSV file                           |surface_flowdatabladeVALIDATION_Blade_15.csv|
|                                   |                     (21.9777 MB/s)|
+-----------------------------------------------------------------------+
+--------------------------------------+
|  Inner_Iter|   Time(sec)|    rms[Rho]|
+--------------------------------------+
|        1810|  1.1923e-01|   -5.141251|
|        1820|  1.1901e-01|   -5.043796|
|        1830|  1.1876e-01|   -5.049687|
|        1840|  1.1845e-01|   -5.136500|
|        1850|  1.1816e-01|   -5.091596|
+-----------------------------------------------------------------------+
|        File Writing Summary       |              Filename             |
+-----------------------------------------------------------------------+
|SU2 binary restart                 |restart_flow_databladeVALIDATION_Blade_15.dat|
|                                   |                     (11808.1 MB/s)|
|Paraview                           |volume_flow_databladeVALIDATION_Blade_15.vtu|
|                                   |                     (1050.46 MB/s)|
|Paraview surface                   |surface_flowdatabladeVALIDATION_Blade_15.vtu|
|                                   |                     (118.785 MB/s)|
|SU2 ASCII restart                  |restart_flow_databladeVALIDATION_Blade_15.csv|
|                                   |                     (21.7399 MB/s)|
|CSV file                           |surface_flowdatabladeVALIDATION_Blade_15.csv|
|                                   |                     (22.6475 MB/s)|
+-----------------------------------------------------------------------+
+--------------------------------------+
|  Inner_Iter|   Time(sec)|    rms[Rho]|
+--------------------------------------+
|        1860|  1.1922e-01|   -4.949485|
|        1870|  1.1895e-01|   -5.118179|
|        1880|  1.1865e-01|   -5.140027|
|        1890|  1.1839e-01|   -5.084349|
|        1900|  1.1817e-01|   -5.060154|
+-----------------------------------------------------------------------+
|        File Writing Summary       |              Filename             |
+-----------------------------------------------------------------------+
|SU2 binary restart                 |restart_flow_databladeVALIDATION_Blade_15.dat|
|                                   |                     (13693.1 MB/s)|
|Paraview                           |volume_flow_databladeVALIDATION_Blade_15.vtu|
|                                   |                     (1034.65 MB/s)|
|Paraview surface                   |surface_flowdatabladeVALIDATION_Blade_15.vtu|
|                                   |                     (102.625 MB/s)|
|SU2 ASCII restart                  |restart_flow_databladeVALIDATION_Blade_15.csv|
|                                   |                     (21.7665 MB/s)|
|CSV file                           |surface_flowdatabladeVALIDATION_Blade_15.csv|
|                                   |                     (19.5817 MB/s)|
+-----------------------------------------------------------------------+
+--------------------------------------+
|  Inner_Iter|   Time(sec)|    rms[Rho]|
+--------------------------------------+
|        1910|  1.1916e-01|   -5.198902|
|        1920|  1.1890e-01|   -5.164134|
|        1930|  1.1867e-01|   -5.167269|
|        1940|  1.1841e-01|   -5.264156|
|        1950|  1.1813e-01|   -5.286109|
+-----------------------------------------------------------------------+
|        File Writing Summary       |              Filename             |
+-----------------------------------------------------------------------+
|SU2 binary restart                 |restart_flow_databladeVALIDATION_Blade_15.dat|
|                                   |                     (12514.1 MB/s)|
|Paraview                           |volume_flow_databladeVALIDATION_Blade_15.vtu|
|                                   |                     (1035.92 MB/s)|
|Paraview surface                   |surface_flowdatabladeVALIDATION_Blade_15.vtu|
|                                   |                     (97.4991 MB/s)|
|SU2 ASCII restart                  |restart_flow_databladeVALIDATION_Blade_15.csv|
|                                   |                     (21.4046 MB/s)|
|CSV file                           |surface_flowdatabladeVALIDATION_Blade_15.csv|
|                                   |                     (21.2527 MB/s)|
+-----------------------------------------------------------------------+
+--------------------------------------+
|  Inner_Iter|   Time(sec)|    rms[Rho]|
+--------------------------------------+
|        1960|  1.1915e-01|   -5.150911|
|        1970|  1.1890e-01|   -5.208759|
|        1980|  1.1864e-01|   -5.233257|
|        1990|  1.1840e-01|   -5.183936|
|        2000|  1.1818e-01|   -5.255066|
+-----------------------------------------------------------------------+
|        File Writing Summary       |              Filename             |
+-----------------------------------------------------------------------+
|SU2 binary restart                 |restart_flow_databladeVALIDATION_Blade_15.dat|
|                                   |                     (12724.8 MB/s)|
|Paraview                           |volume_flow_databladeVALIDATION_Blade_15.vtu|
|                                   |                     (1079.93 MB/s)|
|Paraview surface                   |surface_flowdatabladeVALIDATION_Blade_15.vtu|
|                                   |                     (96.8256 MB/s)|
|SU2 ASCII restart                  |restart_flow_databladeVALIDATION_Blade_15.csv|
|                                   |                     (12.9492 MB/s)|
|CSV file                           |surface_flowdatabladeVALIDATION_Blade_15.csv|
|                                   |                     (19.7221 MB/s)|
+-----------------------------------------------------------------------+
+--------------------------------------+
|  Inner_Iter|   Time(sec)|    rms[Rho]|
+--------------------------------------+
|        2010|  1.1988e-01|   -5.336562|
|        2020|  1.1963e-01|   -5.320327|
|        2030|  1.1945e-01|   -5.255141|
|        2040|  1.1917e-01|   -5.359990|
|        2050|  1.1891e-01|   -5.362127|
+-----------------------------------------------------------------------+
|        File Writing Summary       |              Filename             |
+-----------------------------------------------------------------------+
|SU2 binary restart                 |restart_flow_databladeVALIDATION_Blade_15.dat|
|                                   |                     (12452.1 MB/s)|
|Paraview                           |volume_flow_databladeVALIDATION_Blade_15.vtu|
|                                   |                     (1001.23 MB/s)|
|Paraview surface                   |surface_flowdatabladeVALIDATION_Blade_15.vtu|
|                                   |                     (89.3474 MB/s)|
|SU2 ASCII restart                  |restart_flow_databladeVALIDATION_Blade_15.csv|
|                                   |                     (21.1226 MB/s)|
|CSV file                           |surface_flowdatabladeVALIDATION_Blade_15.csv|
|                                   |                     (19.6384 MB/s)|
+-----------------------------------------------------------------------+
+--------------------------------------+
|  Inner_Iter|   Time(sec)|    rms[Rho]|
+--------------------------------------+
|        2060|  1.1987e-01|   -5.326749|
|        2070|  1.1964e-01|   -5.375769|
|        2080|  1.1936e-01|   -5.422010|
|        2090|  1.1910e-01|   -5.406677|
|        2100|  1.1891e-01|   -5.335731|
+-----------------------------------------------------------------------+
|        File Writing Summary       |              Filename             |
+-----------------------------------------------------------------------+
|SU2 binary restart                 |restart_flow_databladeVALIDATION_Blade_15.dat|
|                                   |                     (14580.4 MB/s)|
|Paraview                           |volume_flow_databladeVALIDATION_Blade_15.vtu|
|                                   |                     (1009.02 MB/s)|
|Paraview surface                   |surface_flowdatabladeVALIDATION_Blade_15.vtu|
|                                   |                     (95.6728 MB/s)|
|SU2 ASCII restart                  |restart_flow_databladeVALIDATION_Blade_15.csv|
|                                   |                     (21.6476 MB/s)|
|CSV file                           |surface_flowdatabladeVALIDATION_Blade_15.csv|
|                                   |                     (20.3996 MB/s)|
+-----------------------------------------------------------------------+
+--------------------------------------+
|  Inner_Iter|   Time(sec)|    rms[Rho]|
+--------------------------------------+
|        2110|  1.1978e-01|   -5.414402|
|        2120|  1.1951e-01|   -5.418734|
|        2130|  1.1928e-01|   -5.384984|
|        2140|  1.1906e-01|   -5.419710|
|        2150|  1.1888e-01|   -5.396879|
+-----------------------------------------------------------------------+
|        File Writing Summary       |              Filename             |
+-----------------------------------------------------------------------+
|SU2 binary restart                 |restart_flow_databladeVALIDATION_Blade_15.dat|
|                                   |                     (12412.2 MB/s)|
|Paraview                           |volume_flow_databladeVALIDATION_Blade_15.vtu|
|                                   |                     (904.104 MB/s)|
|Paraview surface                   |surface_flowdatabladeVALIDATION_Blade_15.vtu|
|                                   |                     (98.6117 MB/s)|
|SU2 ASCII restart                  |restart_flow_databladeVALIDATION_Blade_15.csv|
|                                   |                     (21.3306 MB/s)|
|CSV file                           |surface_flowdatabladeVALIDATION_Blade_15.csv|
|                                   |                      (21.973 MB/s)|
+-----------------------------------------------------------------------+
+--------------------------------------+
|  Inner_Iter|   Time(sec)|    rms[Rho]|
+--------------------------------------+
|        2160|  1.1984e-01|   -5.395180|
|        2170|  1.1960e-01|   -5.450414|
|        2180|  1.1937e-01|   -5.413862|
|        2190|  1.1915e-01|   -5.420846|
|        2200|  1.1889e-01|   -5.459433|
+-----------------------------------------------------------------------+
|        File Writing Summary       |              Filename             |
+-----------------------------------------------------------------------+
|SU2 binary restart                 |restart_flow_databladeVALIDATION_Blade_15.dat|
|                                   |                     (9674.28 MB/s)|
|Paraview                           |volume_flow_databladeVALIDATION_Blade_15.vtu|
|                                   |                     (981.849 MB/s)|
|Paraview surface                   |surface_flowdatabladeVALIDATION_Blade_15.vtu|
|                                   |                     (102.655 MB/s)|
|SU2 ASCII restart                  |restart_flow_databladeVALIDATION_Blade_15.csv|
|                                   |                     (21.6046 MB/s)|
|CSV file                           |surface_flowdatabladeVALIDATION_Blade_15.csv|
|                                   |                     (20.4212 MB/s)|
+-----------------------------------------------------------------------+
+--------------------------------------+
|  Inner_Iter|   Time(sec)|    rms[Rho]|
+--------------------------------------+
|        2210|  1.1976e-01|   -5.408709|
|        2220|  1.1954e-01|   -5.386204|
|        2230|  1.1929e-01|   -5.472939|
|        2240|  1.1904e-01|   -5.504334|
|        2250|  1.1884e-01|   -5.450219|
+-----------------------------------------------------------------------+
|        File Writing Summary       |              Filename             |
+-----------------------------------------------------------------------+
|SU2 binary restart                 |restart_flow_databladeVALIDATION_Blade_15.dat|
|                                   |                     (12674.8 MB/s)|
|Paraview                           |volume_flow_databladeVALIDATION_Blade_15.vtu|
|                                   |                     (1105.74 MB/s)|
|Paraview surface                   |surface_flowdatabladeVALIDATION_Blade_15.vtu|
|                                   |                     (74.7554 MB/s)|
|SU2 ASCII restart                  |restart_flow_databladeVALIDATION_Blade_15.csv|
|                                   |                     (21.3223 MB/s)|
|CSV file                           |surface_flowdatabladeVALIDATION_Blade_15.csv|
|                                   |                     (21.2825 MB/s)|
+-----------------------------------------------------------------------+
+--------------------------------------+
|  Inner_Iter|   Time(sec)|    rms[Rho]|
+--------------------------------------+
|        2260|  1.1970e-01|   -5.527316|
|        2270|  1.1944e-01|   -5.573170|
|        2280|  1.1922e-01|   -5.537178|
|        2290|  1.1900e-01|   -5.495505|
|        2300|  1.1878e-01|   -5.515315|
+-----------------------------------------------------------------------+
|        File Writing Summary       |              Filename             |
+-----------------------------------------------------------------------+
|SU2 binary restart                 |restart_flow_databladeVALIDATION_Blade_15.dat|
|                                   |                       (11598 MB/s)|
|Paraview                           |volume_flow_databladeVALIDATION_Blade_15.vtu|
|                                   |                     (1023.71 MB/s)|
|Paraview surface                   |surface_flowdatabladeVALIDATION_Blade_15.vtu|
|                                   |                     (133.514 MB/s)|
|SU2 ASCII restart                  |restart_flow_databladeVALIDATION_Blade_15.csv|
|                                   |                     (21.1804 MB/s)|
|CSV file                           |surface_flowdatabladeVALIDATION_Blade_15.csv|
|                                   |                     (19.0122 MB/s)|
+-----------------------------------------------------------------------+
+--------------------------------------+
|  Inner_Iter|   Time(sec)|    rms[Rho]|
+--------------------------------------+
|        2310|  1.1961e-01|   -5.530014|
|        2320|  1.1939e-01|   -5.446298|
|        2330|  1.1919e-01|   -5.388323|
|        2340|  1.1895e-01|   -5.498480|
|        2350|  1.1872e-01|   -5.520811|
+-----------------------------------------------------------------------+
|        File Writing Summary       |              Filename             |
+-----------------------------------------------------------------------+
|SU2 binary restart                 |restart_flow_databladeVALIDATION_Blade_15.dat|
|                                   |                     (12940.8 MB/s)|
|Paraview                           |volume_flow_databladeVALIDATION_Blade_15.vtu|
[...]
|        File Writing Summary       |              Filename             |
+-----------------------------------------------------------------------+
|SU2 binary restart                 |restart_flow_databladeVALIDATION_Blade_15.dat|
|                                   |                       (11488 MB/s)|
|Paraview                           |volume_flow_databladeVALIDATION_Blade_15.vtu|
|                                   |                     (942.265 MB/s)|
|Paraview surface                   |surface_flowdatabladeVALIDATION_Blade_15.vtu|
|                                   |                     (105.809 MB/s)|
|SU2 ASCII restart                  |restart_flow_databladeVALIDATION_Blade_15.csv|
|                                   |                     (21.4697 MB/s)|
|CSV file                           |surface_flowdatabladeVALIDATION_Blade_15.csv|
|                                   |                     (20.9029 MB/s)|
+-----------------------------------------------------------------------+
+--------------------------------------+
|  Inner_Iter|   Time(sec)|    rms[Rho]|
+--------------------------------------+
|        3460|  1.1880e-01|   -6.379599|
|        3470|  1.1866e-01|   -6.327698|
|        3480|  1.1854e-01|   -6.260585|
|        3490|  1.1838e-01|   -6.427722|
|        3500|  1.1823e-01|   -6.412654|
+-----------------------------------------------------------------------+
|        File Writing Summary       |              Filename             |
+-----------------------------------------------------------------------+
|SU2 binary restart                 |restart_flow_databladeVALIDATION_Blade_15.dat|
|                                   |                     (9151.22 MB/s)|
|Paraview                           |volume_flow_databladeVALIDATION_Blade_15.vtu|
|                                   |                     (1051.42 MB/s)|
|Paraview surface                   |surface_flowdatabladeVALIDATION_Blade_15.vtu|
|                                   |                      (104.57 MB/s)|
|SU2 ASCII restart                  |restart_flow_databladeVALIDATION_Blade_15.csv|
|                                   |                     (21.4213 MB/s)|
|CSV file                           |surface_flowdatabladeVALIDATION_Blade_15.csv|
|                                   |                     (19.4525 MB/s)|
+-----------------------------------------------------------------------+
+--------------------------------------+
|  Inner_Iter|   Time(sec)|    rms[Rho]|
+--------------------------------------+
|        3510|  1.1880e-01|   -6.372263|
|        3520|  1.1865e-01|   -6.514739|
|        3530|  1.1849e-01|   -6.517344|
|        3540|  1.1835e-01|   -6.439710|
|        3550|  1.1822e-01|   -6.464009|
+-----------------------------------------------------------------------+
|        File Writing Summary       |              Filename             |
+-----------------------------------------------------------------------+
|SU2 binary restart                 |restart_flow_databladeVALIDATION_Blade_15.dat|
|                                   |                     (14928.3 MB/s)|
|Paraview                           |volume_flow_databladeVALIDATION_Blade_15.vtu|
|                                   |                     (1023.28 MB/s)|
|Paraview surface                   |surface_flowdatabladeVALIDATION_Blade_15.vtu|
|                                   |                     (110.221 MB/s)|
|SU2 ASCII restart                  |restart_flow_databladeVALIDATION_Blade_15.csv|
|                                   |                     (21.4865 MB/s)|
|CSV file                           |surface_flowdatabladeVALIDATION_Blade_15.csv|
|                                   |                      (21.493 MB/s)|
+-----------------------------------------------------------------------+
+--------------------------------------+
|  Inner_Iter|   Time(sec)|    rms[Rho]|
+--------------------------------------+
|        3560|  1.1875e-01|   -6.530363|
|        3570|  1.1859e-01|   -6.507168|
|        3580|  1.1847e-01|   -6.407293|
|        3590|  1.1833e-01|   -6.458698|
|        3600|  1.1819e-01|   -6.457199|
+-----------------------------------------------------------------------+
|        File Writing Summary       |              Filename             |
+-----------------------------------------------------------------------+
|SU2 binary restart                 |restart_flow_databladeVALIDATION_Blade_15.dat|
|                                   |                     (12888.1 MB/s)|
|Paraview                           |volume_flow_databladeVALIDATION_Blade_15.vtu|
|                                   |                      (763.12 MB/s)|
|Paraview surface                   |surface_flowdatabladeVALIDATION_Blade_15.vtu|
|                                   |                     (96.0387 MB/s)|
|SU2 ASCII restart                  |restart_flow_databladeVALIDATION_Blade_15.csv|
|                                   |                     (21.4662 MB/s)|
|CSV file                           |surface_flowdatabladeVALIDATION_Blade_15.csv|
|                                   |                     (20.0323 MB/s)|
+-----------------------------------------------------------------------+
+--------------------------------------+
|  Inner_Iter|   Time(sec)|    rms[Rho]|
+--------------------------------------+
|        3610|  1.1873e-01|   -6.406126|
|        3620|  1.1859e-01|   -6.479290|
|        3630|  1.1844e-01|   -6.573116|
|        3640|  1.1829e-01|   -6.568036|
|        3650|  1.1817e-01|   -6.519790|
+-----------------------------------------------------------------------+
|        File Writing Summary       |              Filename             |
+-----------------------------------------------------------------------+
|SU2 binary restart                 |restart_flow_databladeVALIDATION_Blade_15.dat|
|                                   |                     (11216.3 MB/s)|
|Paraview                           |volume_flow_databladeVALIDATION_Blade_15.vtu|
|                                   |                     (1143.97 MB/s)|
|Paraview surface                   |surface_flowdatabladeVALIDATION_Blade_15.vtu|
|                                   |                     (104.624 MB/s)|
|SU2 ASCII restart                  |restart_flow_databladeVALIDATION_Blade_15.csv|
|                                   |                     (21.0123 MB/s)|
|CSV file                           |surface_flowdatabladeVALIDATION_Blade_15.csv|
|                                   |                     (20.6125 MB/s)|
+-----------------------------------------------------------------------+
+--------------------------------------+
|  Inner_Iter|   Time(sec)|    rms[Rho]|
+--------------------------------------+
|        3660|  1.1871e-01|   -6.632791|
|        3670|  1.1856e-01|   -6.628656|
|        3680|  1.1842e-01|   -6.562747|
|        3690|  1.1831e-01|   -6.584807|
|        3700|  1.1817e-01|   -6.630881|
+-----------------------------------------------------------------------+
|        File Writing Summary       |              Filename             |
+-----------------------------------------------------------------------+
|SU2 binary restart                 |restart_flow_databladeVALIDATION_Blade_15.dat|
|                                   |                     (11209.7 MB/s)|
|Paraview                           |volume_flow_databladeVALIDATION_Blade_15.vtu|
|                                   |                     (964.567 MB/s)|
|Paraview surface                   |surface_flowdatabladeVALIDATION_Blade_15.vtu|
|                                   |                     (97.1964 MB/s)|
|SU2 ASCII restart                  |restart_flow_databladeVALIDATION_Blade_15.csv|
|                                   |                     (21.1081 MB/s)|
|CSV file                           |surface_flowdatabladeVALIDATION_Blade_15.csv|
|                                   |                     (19.5547 MB/s)|
+-----------------------------------------------------------------------+
+--------------------------------------+
|  Inner_Iter|   Time(sec)|    rms[Rho]|
+--------------------------------------+
|        3710|  1.1869e-01|   -6.604878|
|        3720|  1.1857e-01|   -6.552440|
|        3730|  1.1842e-01|   -6.650676|
|        3740|  1.1828e-01|   -6.658198|
|        3750|  1.1814e-01|   -6.625152|
+-----------------------------------------------------------------------+
|        File Writing Summary       |              Filename             |
+-----------------------------------------------------------------------+
|SU2 binary restart                 |restart_flow_databladeVALIDATION_Blade_15.dat|
|                                   |                     (12177.7 MB/s)|
|Paraview                           |volume_flow_databladeVALIDATION_Blade_15.vtu|
|                                   |                     (1006.34 MB/s)|
|Paraview surface                   |surface_flowdatabladeVALIDATION_Blade_15.vtu|
|                                   |                      (119.48 MB/s)|
|SU2 ASCII restart                  |restart_flow_databladeVALIDATION_Blade_15.csv|
|                                   |                     (21.6675 MB/s)|
|CSV file                           |surface_flowdatabladeVALIDATION_Blade_15.csv|
|                                   |                     (21.2128 MB/s)|
+-----------------------------------------------------------------------+
+--------------------------------------+
|  Inner_Iter|   Time(sec)|    rms[Rho]|
+--------------------------------------+
|        3760|  1.1866e-01|   -6.644528|
|        3770|  1.1851e-01|   -6.750037|
|        3780|  1.1837e-01|   -6.748905|
|        3790|  1.1824e-01|   -6.679537|
|        3800|  1.1812e-01|   -6.719802|
+-----------------------------------------------------------------------+
|        File Writing Summary       |              Filename             |
+-----------------------------------------------------------------------+
|SU2 binary restart                 |restart_flow_databladeVALIDATION_Blade_15.dat|
|                                   |                     (11957.7 MB/s)|
|Paraview                           |volume_flow_databladeVALIDATION_Blade_15.vtu|
|                                   |                     (1040.62 MB/s)|
|Paraview surface                   |surface_flowdatabladeVALIDATION_Blade_15.vtu|
|                                   |                     (101.819 MB/s)|
|SU2 ASCII restart                  |restart_flow_databladeVALIDATION_Blade_15.csv|
|                                   |                     (21.1786 MB/s)|
|CSV file                           |surface_flowdatabladeVALIDATION_Blade_15.csv|
|                                   |                      (21.649 MB/s)|
+-----------------------------------------------------------------------+
+--------------------------------------+
|  Inner_Iter|   Time(sec)|    rms[Rho]|
+--------------------------------------+
|        3810|  1.1862e-01|   -6.720964|
|        3820|  1.1849e-01|   -6.670255|
|        3830|  1.1837e-01|   -6.675187|
|        3840|  1.1822e-01|   -6.729486|
|        3850|  1.1809e-01|   -6.722328|
+-----------------------------------------------------------------------+
|        File Writing Summary       |              Filename             |
+-----------------------------------------------------------------------+
|SU2 binary restart                 |restart_flow_databladeVALIDATION_Blade_15.dat|
|                                   |                     (13226.5 MB/s)|
|Paraview                           |volume_flow_databladeVALIDATION_Blade_15.vtu|
|                                   |                     (1077.64 MB/s)|
|Paraview surface                   |surface_flowdatabladeVALIDATION_Blade_15.vtu|
|                                   |                     (118.353 MB/s)|
|SU2 ASCII restart                  |restart_flow_databladeVALIDATION_Blade_15.csv|
|                                   |                     (21.1204 MB/s)|
|CSV file                           |surface_flowdatabladeVALIDATION_Blade_15.csv|
|                                   |                     (21.7759 MB/s)|
+-----------------------------------------------------------------------+
+--------------------------------------+
|  Inner_Iter|   Time(sec)|    rms[Rho]|
+--------------------------------------+
|        3860|  1.1860e-01|   -6.716685|
|        3870|  1.1847e-01|   -6.801427|
|        3880|  1.1833e-01|   -6.846210|
|        3890|  1.1823e-01|   -6.776712|
|        3900|  1.1810e-01|   -6.888594|
+-----------------------------------------------------------------------+
|        File Writing Summary       |              Filename             |
+-----------------------------------------------------------------------+
|SU2 binary restart                 |restart_flow_databladeVALIDATION_Blade_15.dat|
|                                   |                     (9994.15 MB/s)|
|Paraview                           |volume_flow_databladeVALIDATION_Blade_15.vtu|
|                                   |                     (960.615 MB/s)|
|Paraview surface                   |surface_flowdatabladeVALIDATION_Blade_15.vtu|
|                                   |                     (82.8873 MB/s)|
|SU2 ASCII restart                  |restart_flow_databladeVALIDATION_Blade_15.csv|
|                                   |                     (21.5791 MB/s)|
|CSV file                           |surface_flowdatabladeVALIDATION_Blade_15.csv|
|                                   |                     (19.8906 MB/s)|
+-----------------------------------------------------------------------+
+--------------------------------------+
|  Inner_Iter|   Time(sec)|    rms[Rho]|
+--------------------------------------+
|        3910|  1.1858e-01|   -6.889507|
|        3920|  1.1847e-01|   -6.788760|
|        3930|  1.1834e-01|   -6.839493|
|        3940|  1.1820e-01|   -6.840930|
|        3950|  1.1807e-01|   -6.795368|
+-----------------------------------------------------------------------+
|        File Writing Summary       |              Filename             |
+-----------------------------------------------------------------------+
|SU2 binary restart                 |restart_flow_databladeVALIDATION_Blade_15.dat|
|                                   |                       (11951 MB/s)|
|Paraview                           |volume_flow_databladeVALIDATION_Blade_15.vtu|
|                                   |                     (1067.85 MB/s)|
|Paraview surface                   |surface_flowdatabladeVALIDATION_Blade_15.vtu|
|                                   |                     (109.595 MB/s)|
|SU2 ASCII restart                  |restart_flow_databladeVALIDATION_Blade_15.csv|
|                                   |                     (21.0663 MB/s)|
|CSV file                           |surface_flowdatabladeVALIDATION_Blade_15.csv|
|                                   |                     (20.2064 MB/s)|
+-----------------------------------------------------------------------+
+--------------------------------------+
|  Inner_Iter|   Time(sec)|    rms[Rho]|
+--------------------------------------+
|        3960|  1.1858e-01|   -6.713740|
|        3970|  1.1845e-01|   -6.806839|
|        3980|  1.1832e-01|   -6.823754|
|        3990|  1.1820e-01|   -6.825165|
|        4000|  1.1808e-01|   -6.888876|
+-----------------------------------------------------------------------+
|        File Writing Summary       |              Filename             |
+-----------------------------------------------------------------------+
|SU2 binary restart                 |restart_flow_databladeVALIDATION_Blade_15.dat|
|                                   |                     (12757.2 MB/s)|
|Paraview                           |volume_flow_databladeVALIDATION_Blade_15.vtu|
|                                   |                     (966.817 MB/s)|
|Paraview surface                   |surface_flowdatabladeVALIDATION_Blade_15.vtu|
|                                   |                     (88.7716 MB/s)|
|SU2 ASCII restart                  |restart_flow_databladeVALIDATION_Blade_15.csv|
|                                   |                     (21.8228 MB/s)|
|CSV file                           |surface_flowdatabladeVALIDATION_Blade_15.csv|
|                                   |                     (20.3881 MB/s)|
+-----------------------------------------------------------------------+
+--------------------------------------+
|  Inner_Iter|   Time(sec)|    rms[Rho]|
+--------------------------------------+
|        4010|  1.1854e-01|   -6.970018|
|        4020|  1.1842e-01|   -6.961080|
|        4024|  1.1836e-01|   -7.005742|

----------------------------- Solver Exit -------------------------------
All convergence criteria satisfied.
+-----------------------------------------------------------------------+
|      Convergence Field     |     Value    |   Criterion  |  Converged |
+-----------------------------------------------------------------------+
|                    rms[Rho]|      -7.00574|          < -7|         Yes|
+-----------------------------------------------------------------------+
-------------------------------------------------------------------------
+-----------------------------------------------------------------------+
|        File Writing Summary       |              Filename             |
+-----------------------------------------------------------------------+
|SU2 binary restart                 |restart_flow_databladeVALIDATION_Blade_15.dat|
|                                   |                     (11798.3 MB/s)|
|Paraview                           |volume_flow_databladeVALIDATION_Blade_15.vtu|
|                                   |                     (1133.32 MB/s)|
|Paraview surface                   |surface_flowdatabladeVALIDATION_Blade_15.vtu|
|                                   |                     (99.8534 MB/s)|
|SU2 ASCII restart                  |restart_flow_databladeVALIDATION_Blade_15.csv|
|                                   |                     (21.5216 MB/s)|
|CSV file                           |surface_flowdatabladeVALIDATION_Blade_15.csv|
|                                   |                     (20.7727 MB/s)|
+-----------------------------------------------------------------------+

--------------------------- Finalizing Solver ---------------------------
Deleted CNumerics container.
Deleted CIntegration container.
Deleted CSolver container.
Deleted CIteration container.
Deleted CInterface container.
Deleted CGeometry container.
Deleted CFreeFormDefBox class.
Deleted CSurfaceMovement class.
Deleted CVolumetricMovement class.
Deleted CConfig container.
Deleted nInst container.
Deleted COutput class.
-------------------------------------------------------------------------


-------------------------- Performance Summary --------------------------
Simulation totals:
   Wall-clock time (hrs):    0.133158 |            Core-hrs:      1.5979
                   Cores:          12 |          DOFs/point:           5
             Points/core:     5386.58 |   Ghost points/core:     157.417
 Ghost/Owned Point Ratio:   0.0292238 | 

Preprocessing phase:
       Preproc. Time (s):    0.527394 |   Preproc. Time (%):    0.110018

Compute phase:
        Compute Time (s):     476.422 |    Compute Time (%):     99.3854
         Iteration count:        4025 |         Avg. s/iter:    0.118366
     Core-s/iter/Mpoints:     21.3503 |           Mpoints/s:    0.562054

Output phase:
         Output Time (s):     2.41882 |     Output Time (%):    0.504584
            Output count:           1 |       Avg. s/output:     2.41882
 Restart Aggr. BW (MB/s):      964836 |           MB/s/core:       80403
-------------------------------------------------------------------------


------------------------- Exit Success (SU2_CFD) ------------------------

