
-------------------------------------------------------------------------
|    ___ _   _ ___                                                      |
|   / __| | | |_  )   Release 8.0.1 "Harrier"                           |
|   \__ \ |_| |/ /                                                      |
|   |___/\___//___|   Suite (Computational Fluid Dynamics Code)         |
|                                                                       |
-------------------------------------------------------------------------
| SU2 Project Website: https://su2code.github.io                        |
|                                                                       |
| The SU2 Project is maintained by the SU2 Foundation                   |
| (http://su2foundation.org)                                            |
-------------------------------------------------------------------------
| Copyright 2012-2024, SU2 Contributors                                 |
|                                                                       |
| SU2 is free software; you can redistribute it and/or                  |
| modify it under the terms of the GNU Lesser General Public            |
| License as published by the Free Software Foundation; either          |
| version 2.1 of the License, or (at your option) any later version.    |
|                                                                       |
| SU2 is distributed in the hope that it will be useful,                |
| but WITHOUT ANY WARRANTY; without even the implied warranty of        |
| MERCHANTABILITY or FITNESS FOR A PARTICULAR PURPOSE. See the GNU      |
| Lesser General Public License for more details.                       |
|                                                                       |
| You should have received a copy of the GNU Lesser General Public      |
| License along with SU2. If not, see <http://www.gnu.org/licenses/>.   |
-------------------------------------------------------------------------

Parsing config file for zone 0

----------------- Physical Case Definition ( Zone 0 ) -------------------
Compressible RANS equations.
Turbulence model: Spalart-Allmaras-noft2-BCM
Hybrid RANS/LES: No Hybrid RANS/LES
Mach number: 0.667.
Angle of attack (AoA): -4 deg, and angle of sideslip (AoS): 0 deg.
Reynolds number: 600000. Reference length 1.00217.
No restart solution, use the values at infinity (freestream).
Dimensional simulation.
The reference area will be computed using y(2D) or z(3D) projection.
The semi-span will be computed using the max y(3D) value.
The reference length is 1.00217 m.
Reference origin for moment evaluation is (0, 0, 0).
Surface(s) where the force coefficients are evaluated: blade1.

Surface(s) plotted in the output file: blade1.
Surface(s) to be analyzed in detail: inlet, outlet, blade1.
Input mesh file name: cascade2D_databladeVALIDATION_Blade_24.su2

--------------- Space Numerical Integration ( Zone 0 ) ------------------
Jameson-Schmidt-Turkel scheme (2nd order in space) for the flow inviscid terms.
JST viscous coefficients (2nd & 4th): 0.5, 0.02.
The method includes a grid stretching correction (p = 0.3).
Scalar upwind solver for the turbulence model.
First order integration in space.
Average of gradients with correction (viscous flow terms).
Average of gradients with correction (viscous turbulence terms).
Gradient for upwind reconstruction: inverse-distance weighted Least-Squares.
Gradient for viscous and source terms: inverse-distance weighted Least-Squares.

--------------- Time Numerical Integration  ( Zone 0 ) ------------------
Local time stepping (steady state simulation).
Euler implicit method for the flow equations.
FGMRES is used for solving the linear system.
Using a LU-SGS preconditioning.
Convergence criteria of the linear solver: 0.0001.
Max number of linear iterations: 10.
V Multigrid Cycle, with 3 multigrid levels.
Damping factor for the residual restriction: 0.75.
Damping factor for the correction prolongation: 0.75.
CFL adaptation. Factor down: 0.1, factor up: 1.2,
                lower limit: 0.1, upper limit: 100,
                acceptable linear residual: 0.001.
+-------------------------------------------+
|  MG Level| Presmooth|PostSmooth|CorrectSmo|
+-------------------------------------------+
|         0|         1|         0|         1|
|         1|         2|         2|         2|
|         2|         3|         3|         3|
|         3|         3|         0|         0|
+-------------------------------------------+
Courant-Friedrichs-Lewy number:       12
Euler implicit time integration for the turbulence model.

------------------ Convergence Criteria  ( Zone 0 ) ---------------------
Maximum number of solver subiterations: 7000.
Begin convergence monitoring at iteration 500.
Residual minimum value: 1e-7.
Cauchy series min. value: 1e-10.
Number of Cauchy elements: 100.
Begin windowed time average at iteration 0.

-------------------- Output Information ( Zone 0 ) ----------------------
File writing frequency: 
+------------------------------------+
|                     File| Frequency|
+------------------------------------+
|                  RESTART|        50|
|                 PARAVIEW|        50|
|         SURFACE_PARAVIEW|        50|
|                      CSV|        50|
|              SURFACE_CSV|        50|
+------------------------------------+
Writing the convergence history file every 1 inner iterations.
Writing the screen convergence history every 10 inner iterations.
The tabular file format is CSV (.csv).
Convergence history file name: history_databladeVALIDATION_Blade_24.
Forces breakdown file name: forces_breakdown.dat.
Surface file name: surface_flowdatabladeVALIDATION_Blade_24.
Volume file name: volume_flow_databladeVALIDATION_Blade_24.
Restart file name: restart_flow_databladeVALIDATION_Blade_24.dat.

------------- Config File Boundary Information ( Zone 0 ) ---------------
+-----------------------------------------------------------------------+
|                        Marker Type|                        Marker Name|
+-----------------------------------------------------------------------+
|                  Periodic boundary|               symmetricWallsBOTTOM|
|                                   |                  symmetricWallsTOP|
+-----------------------------------------------------------------------+
|                     Inlet boundary|                              inlet|
+-----------------------------------------------------------------------+
|                    Outlet boundary|                             outlet|
+-----------------------------------------------------------------------+
|                     Heat flux wall|                             blade1|
|                                   |                             blade2|
+-----------------------------------------------------------------------+

-------------------- Output Preprocessing ( Zone 0 ) --------------------
  Info: Ignoring the following screen output fields:
  LINSOL_ITER_TRANS, LINSOL_RESIDUAL_TRANS
Screen output fields: INNER_ITER, CUR_TIME, RMS_DENSITY
  Info: Ignoring the following history output groups:
  RMS_TKE, RMS_DISSIPATION
History output group(s): INNER_ITER, WALL_TIME, RMS_DENSITY, RMS_MOMENTUM-X, RMS_ENERGY, LINSOL, CFL_NUMBER, FLOW_COEFF_SURF, AERO_COEFF_SURF
Convergence field(s): RMS_DENSITY
Warning: No (valid) fields chosen for time convergence monitoring. Time convergence monitoring inactive.
Volume output fields: COORDINATES, SOLUTION, PRIMITIVE, RESIDUAL, TIMESTEP, MESH_QUALITY, VORTEX_IDENTIFICATION

------------------- Geometry Preprocessing ( Zone 0 ) -------------------
Two dimensional problem.
67453 grid points before partitioning.
104630 volume elements before partitioning.
5 surface markers.
30 boundary elements in index 0 (Marker = inlet).
283 boundary elements in index 1 (Marker = symmetricWallsBOTTOM).
283 boundary elements in index 2 (Marker = symmetricWallsTOP).
30 boundary elements in index 3 (Marker = outlet).
1186 boundary elements in index 4 (Marker = blade1).
Executing the partitioning functions.
Building the graph adjacency structure.
Calling ParMETIS... graph partitioning complete (1697 edge cuts).
Distributing ParMETIS coloring.
Rebalancing vertices.
Rebalancing volume element connectivity.
Rebalancing markers and surface elements.
69497 vertices including ghost points. 
106316 interior elements including halo cells. 
77518 triangles.
28798 quadrilaterals.
Establishing MPI communication patterns.
Setting point connectivity.
Renumbering points (Reverse Cuthill McKee Ordering).
Recomputing point connectivity.
Setting element connectivity.
Checking the numerical grid orientation.
All volume elements are correctly orientend.
There has been a re-orientation of 916 LINE surface elements.
Identifying edges and vertices.
Setting the control volume structure.
Area of the computational grid: 3.97868.
Searching for the closest normal neighbors to the surfaces.
Storing a mapping from global to local point index.
Compute the surface curvature.
Max K: 124.314. Mean K: 4.13722. Standard deviation K: 13.8332.
Checking for periodicity.
WARNING: Periodicity has been detected. Disabling multigrid. 
Computing mesh quality statistics for the dual control volumes.
+--------------------------------------------------------------+
|           Mesh Quality Metric|        Minimum|        Maximum|
+--------------------------------------------------------------+
|    Orthogonality Angle (deg.)|        55.2254|             90|
|     CV Face Area Aspect Ratio|        1.00023|        284.463|
|           CV Sub-Volume Ratio|              1|        20.4243|
+--------------------------------------------------------------+
Finding max control volume width.
Communicating number of neighbors.
Reference length = 1.01461 m.
Wetted area = 2.84272 m.
Area projection in the x-plane = 0.891086 m, y-plane = 1.01461 m.
Max. coordinate in the x-direction = 1.01451 m, y-direction = 0.761713 m.
Min. coordinate in the x-direction = -0.000105228 m, y-direction = -0.129377 m.
Matching the periodic boundary points for marker pair 1.
 Matched 568 points with a max distance of: 9.49726e-14.
Computing wall distances.

-------------------- Solver Preprocessing ( Zone 0 ) --------------------
Viscous flow: Computing pressure using the ideal gas law
based on the free-stream temperature and a density computed
from the Reynolds number.
Force coefficients computed using free-stream values.

-- Models:
+------------------------------------------------------------------------------+
|          Viscosity Model|        Conductivity Model|              Fluid Model|
+------------------------------------------------------------------------------+
|               SUTHERLAND|          CONSTANT_PRANDTL|                IDEAL_GAS|
+------------------------------------------------------------------------------+
-- Fluid properties:
+------------------------------------------------------------------------------+
|                  Name|    Dim. value|    Ref. value|      Unit|Non-dim. value|
+------------------------------------------------------------------------------+
|        Ref. Viscosity|     1.716e-05|             1|   N.s/m^2|     1.716e-05|
|      Sutherland Temp.|        273.15|             1|         K|        273.15|
|     Sutherland Const.|         110.4|             1|         K|         110.4|
+------------------------------------------------------------------------------+
|        Prandtl (Lam.)|             -|             -|         -|          0.72|
|       Prandtl (Turb.)|             -|             -|         -|           0.9|
+------------------------------------------------------------------------------+
|          Gas Constant|       287.058|             1|  N.m/kg.K|       287.058|
|      Spec. Heat Ratio|             -|             -|         -|           1.4|
+------------------------------------------------------------------------------+
-- Initial and free-stream conditions:
+------------------------------------------------------------------------------+
|                  Name|    Dim. value|    Ref. value|      Unit|Non-dim. value|
+------------------------------------------------------------------------------+
|       Static Pressure|       4109.38|             1|        Pa|       4109.38|
|               Density|     0.0477183|             1|    kg/m^3|     0.0477183|
|           Temperature|           300|             1|         K|           300|
|          Total Energy|        242112|             1|   m^2/s^2|        242112|
|            Velocity-X|       231.034|             1|       m/s|       231.034|
|            Velocity-Y|      -16.1555|             1|       m/s|      -16.1555|
|    Velocity Magnitude|       231.598|             1|       m/s|       231.598|
+------------------------------------------------------------------------------+
|             Viscosity|   1.84592e-05|             1|   N.s/m^2|   1.84592e-05|
|          Conductivity|             -|             1|   W/m^2.K|             -|
|     Turb. Kin. Energy|       98.5594|             1|   m^2/s^2|       98.5594|
|     Spec. Dissipation|   2.54783e+06|             1|       1/s|   2.54783e+06|
+------------------------------------------------------------------------------+
|           Mach Number|             -|             -|         -|         0.667|
|       Reynolds Number|             -|             -|         -|        600000|
+------------------------------------------------------------------------------+
Initialize Jacobian structure (Navier-Stokes). MG level: 0.
Initialize Jacobian structure (SA model).

------------------- Numerics Preprocessing ( Zone 0 ) -------------------

----------------- Integration Preprocessing ( Zone 0 ) ------------------

------------------- Iteration Preprocessing ( Zone 0 ) ------------------
Euler/Navier-Stokes/RANS fluid iteration.

------------------------------ Begin Solver -----------------------------

Simulation Run using the Single-zone Driver
WARNING: SU2 was not compiled for an AVX-capable architecture. Performance could be better,
         see https://su2code.github.io/docs_v7/Build-SU2-Linux-MacOS/#compiler-optimizations
+--------------------------------------+
|  Inner_Iter|    Cur_Time|    rms[Rho]|
+--------------------------------------+
|           0|  0.0000e+00|   -2.590644|
|          10|  0.0000e+00|   -3.207585|
|          20|  0.0000e+00|   -3.015227|
|          30|  0.0000e+00|   -3.066210|
|          40|  0.0000e+00|   -3.023173|
|          50|  0.0000e+00|   -2.831076|
+-----------------------------------------------------------------------+
|        File Writing Summary       |              Filename             |
+-----------------------------------------------------------------------+
|SU2 binary restart                 |restart_flow_databladeVALIDATION_Blade_24.dat|
|                                   |                     (9093.69 MB/s)|
|Paraview                           |volume_flow_databladeVALIDATION_Blade_24.vtu|
|                                   |                     (1045.74 MB/s)|
|Paraview surface                   |surface_flowdatabladeVALIDATION_Blade_24.vtu|
|                                   |                     (86.4169 MB/s)|
|SU2 ASCII restart                  |restart_flow_databladeVALIDATION_Blade_24.csv|
|                                   |                     (22.5198 MB/s)|
|CSV file                           |surface_flowdatabladeVALIDATION_Blade_24.csv|
|                                   |                     (22.2965 MB/s)|
+-----------------------------------------------------------------------+
+--------------------------------------+
|  Inner_Iter|    Cur_Time|    rms[Rho]|
+--------------------------------------+
|          60|  0.0000e+00|   -3.019082|
|          70|  0.0000e+00|   -3.086910|
|          80|  0.0000e+00|   -3.136187|
|          90|  0.0000e+00|   -3.134207|
|         100|  0.0000e+00|   -3.136308|
+-----------------------------------------------------------------------+
|        File Writing Summary       |              Filename             |
+-----------------------------------------------------------------------+
|SU2 binary restart                 |restart_flow_databladeVALIDATION_Blade_24.dat|
|                                   |                     (10714.2 MB/s)|
|Paraview                           |volume_flow_databladeVALIDATION_Blade_24.vtu|
|                                   |                      (1048.9 MB/s)|
|Paraview surface                   |surface_flowdatabladeVALIDATION_Blade_24.vtu|
|                                   |                     (92.6221 MB/s)|
|SU2 ASCII restart                  |restart_flow_databladeVALIDATION_Blade_24.csv|
|                                   |                     (22.7767 MB/s)|
|CSV file                           |surface_flowdatabladeVALIDATION_Blade_24.csv|
|                                   |                      (22.126 MB/s)|
+-----------------------------------------------------------------------+
+--------------------------------------+
|  Inner_Iter|    Cur_Time|    rms[Rho]|
+--------------------------------------+
|         110|  0.0000e+00|   -3.144498|
|         120|  0.0000e+00|   -3.110896|
|         130|  0.0000e+00|   -3.081929|
|         140|  0.0000e+00|   -3.164493|
|         150|  0.0000e+00|   -3.188556|
+-----------------------------------------------------------------------+
|        File Writing Summary       |              Filename             |
+-----------------------------------------------------------------------+
|SU2 binary restart                 |restart_flow_databladeVALIDATION_Blade_24.dat|
|                                   |                     (12650.6 MB/s)|
|Paraview                           |volume_flow_databladeVALIDATION_Blade_24.vtu|
|                                   |                     (1032.51 MB/s)|
|Paraview surface                   |surface_flowdatabladeVALIDATION_Blade_24.vtu|
|                                   |                     (110.936 MB/s)|
|SU2 ASCII restart                  |restart_flow_databladeVALIDATION_Blade_24.csv|
|                                   |                     (22.0517 MB/s)|
|CSV file                           |surface_flowdatabladeVALIDATION_Blade_24.csv|
|                                   |                     (22.2542 MB/s)|
+-----------------------------------------------------------------------+
+--------------------------------------+
|  Inner_Iter|    Cur_Time|    rms[Rho]|
+--------------------------------------+
|         160|  0.0000e+00|   -3.197022|
|         170|  0.0000e+00|   -3.226350|
|         180|  0.0000e+00|   -3.289317|
|         190|  0.0000e+00|   -3.250704|
|         200|  0.0000e+00|   -3.001229|
+-----------------------------------------------------------------------+
|        File Writing Summary       |              Filename             |
+-----------------------------------------------------------------------+
|SU2 binary restart                 |restart_flow_databladeVALIDATION_Blade_24.dat|
|                                   |                     (13247.8 MB/s)|
|Paraview                           |volume_flow_databladeVALIDATION_Blade_24.vtu|
|                                   |                     (993.372 MB/s)|
|Paraview surface                   |surface_flowdatabladeVALIDATION_Blade_24.vtu|
|                                   |                     (92.6221 MB/s)|
|SU2 ASCII restart                  |restart_flow_databladeVALIDATION_Blade_24.csv|
|                                   |                     (22.1792 MB/s)|
|CSV file                           |surface_flowdatabladeVALIDATION_Blade_24.csv|
|                                   |                     (21.4816 MB/s)|
+-----------------------------------------------------------------------+
+--------------------------------------+
|  Inner_Iter|    Cur_Time|    rms[Rho]|
+--------------------------------------+
|         210|  0.0000e+00|   -3.003014|
|         220|  0.0000e+00|   -3.090473|
|         230|  0.0000e+00|   -3.102311|
|         240|  0.0000e+00|   -3.126507|
|         250|  0.0000e+00|   -3.265444|
+-----------------------------------------------------------------------+
|        File Writing Summary       |              Filename             |
+-----------------------------------------------------------------------+
|SU2 binary restart                 |restart_flow_databladeVALIDATION_Blade_24.dat|
|                                   |                     (9927.52 MB/s)|
|Paraview                           |volume_flow_databladeVALIDATION_Blade_24.vtu|
|                                   |                     (878.284 MB/s)|
|Paraview surface                   |surface_flowdatabladeVALIDATION_Blade_24.vtu|
|                                   |                     (99.3063 MB/s)|
|SU2 ASCII restart                  |restart_flow_databladeVALIDATION_Blade_24.csv|
|                                   |                     (21.4507 MB/s)|
|CSV file                           |surface_flowdatabladeVALIDATION_Blade_24.csv|
|                                   |                     (22.3613 MB/s)|
+-----------------------------------------------------------------------+
+--------------------------------------+
|  Inner_Iter|    Cur_Time|    rms[Rho]|
+--------------------------------------+
|         260|  0.0000e+00|   -3.316017|
|         270|  0.0000e+00|   -3.307877|
|         280|  0.0000e+00|   -3.260763|
|         290|  0.0000e+00|   -3.345131|
|         300|  0.0000e+00|   -3.390842|
+-----------------------------------------------------------------------+
|        File Writing Summary       |              Filename             |
+-----------------------------------------------------------------------+
|SU2 binary restart                 |restart_flow_databladeVALIDATION_Blade_24.dat|
|                                   |                     (12775.8 MB/s)|
|Paraview                           |volume_flow_databladeVALIDATION_Blade_24.vtu|
|                                   |                     (999.275 MB/s)|
|Paraview surface                   |surface_flowdatabladeVALIDATION_Blade_24.vtu|
|                                   |                     (100.344 MB/s)|
|SU2 ASCII restart                  |restart_flow_databladeVALIDATION_Blade_24.csv|
|                                   |                     (22.1301 MB/s)|
|CSV file                           |surface_flowdatabladeVALIDATION_Blade_24.csv|
|                                   |                     (22.6511 MB/s)|
+-----------------------------------------------------------------------+
+--------------------------------------+
|  Inner_Iter|    Cur_Time|    rms[Rho]|
+--------------------------------------+
|         310|  0.0000e+00|   -3.365738|
|         320|  0.0000e+00|   -3.466254|
|         330|  0.0000e+00|   -3.455533|
|         340|  0.0000e+00|   -3.425747|
|         350|  0.0000e+00|   -3.432306|
+-----------------------------------------------------------------------+
|        File Writing Summary       |              Filename             |
+-----------------------------------------------------------------------+
|SU2 binary restart                 |restart_flow_databladeVALIDATION_Blade_24.dat|
|                                   |                     (12466.5 MB/s)|
|Paraview                           |volume_flow_databladeVALIDATION_Blade_24.vtu|
|                                   |                     (1075.63 MB/s)|
|Paraview surface                   |surface_flowdatabladeVALIDATION_Blade_24.vtu|
|                                   |                     (107.815 MB/s)|
|SU2 ASCII restart                  |restart_flow_databladeVALIDATION_Blade_24.csv|
|                                   |                      (21.891 MB/s)|
|CSV file                           |surface_flowdatabladeVALIDATION_Blade_24.csv|
|                                   |                     (20.8325 MB/s)|
+-----------------------------------------------------------------------+
+--------------------------------------+
|  Inner_Iter|    Cur_Time|    rms[Rho]|
+--------------------------------------+
|         360|  0.0000e+00|   -3.560062|
|         370|  0.0000e+00|   -3.622007|
|         380|  0.0000e+00|   -3.536289|
|         390|  0.0000e+00|   -3.597568|
|         400|  0.0000e+00|   -3.631429|
+-----------------------------------------------------------------------+
|        File Writing Summary       |              Filename             |
+-----------------------------------------------------------------------+
|SU2 binary restart                 |restart_flow_databladeVALIDATION_Blade_24.dat|
|                                   |                     (13155.8 MB/s)|
|Paraview                           |volume_flow_databladeVALIDATION_Blade_24.vtu|
|                                   |                     (575.207 MB/s)|
|Paraview surface                   |surface_flowdatabladeVALIDATION_Blade_24.vtu|
|                                   |                     (66.3966 MB/s)|
|SU2 ASCII restart                  |restart_flow_databladeVALIDATION_Blade_24.csv|
|                                   |                     (21.7005 MB/s)|
|CSV file                           |surface_flowdatabladeVALIDATION_Blade_24.csv|
|                                   |                     (20.1629 MB/s)|
+-----------------------------------------------------------------------+
+--------------------------------------+
|  Inner_Iter|    Cur_Time|    rms[Rho]|
+--------------------------------------+
|         410|  0.0000e+00|   -3.670022|
|         420|  0.0000e+00|   -3.634393|
|         430|  0.0000e+00|   -3.696597|
|         440|  0.0000e+00|   -3.776523|
|         450|  0.0000e+00|   -3.709530|
+-----------------------------------------------------------------------+
|        File Writing Summary       |              Filename             |
+-----------------------------------------------------------------------+
|SU2 binary restart                 |restart_flow_databladeVALIDATION_Blade_24.dat|
|                                   |                     (9013.66 MB/s)|
|Paraview                           |volume_flow_databladeVALIDATION_Blade_24.vtu|
|                                   |                     (968.083 MB/s)|
|Paraview surface                   |surface_flowdatabladeVALIDATION_Blade_24.vtu|
|                                   |                     (86.6842 MB/s)|
|SU2 ASCII restart                  |restart_flow_databladeVALIDATION_Blade_24.csv|
|                                   |                     (22.0766 MB/s)|
|CSV file                           |surface_flowdatabladeVALIDATION_Blade_24.csv|
|                                   |                     (22.0591 MB/s)|
+-----------------------------------------------------------------------+
+--------------------------------------+
|  Inner_Iter|    Cur_Time|    rms[Rho]|
+--------------------------------------+
|         460|  0.0000e+00|   -3.790101|
|         470|  0.0000e+00|   -3.874694|
|         480|  0.0000e+00|   -3.889901|
|         490|  0.0000e+00|   -3.861824|
|         500|  0.0000e+00|   -3.947921|
+-----------------------------------------------------------------------+
|        File Writing Summary       |              Filename             |
+-----------------------------------------------------------------------+
|SU2 binary restart                 |restart_flow_databladeVALIDATION_Blade_24.dat|
|                                   |                     (13303.2 MB/s)|
|Paraview                           |volume_flow_databladeVALIDATION_Blade_24.vtu|
|                                   |                     (1095.26 MB/s)|
|Paraview surface                   |surface_flowdatabladeVALIDATION_Blade_24.vtu|
|                                   |                     (102.673 MB/s)|
|SU2 ASCII restart                  |restart_flow_databladeVALIDATION_Blade_24.csv|
|                                   |                     (21.4415 MB/s)|
|CSV file                           |surface_flowdatabladeVALIDATION_Blade_24.csv|
|                                   |                     (22.3266 MB/s)|
+-----------------------------------------------------------------------+
+--------------------------------------+
|  Inner_Iter|    Cur_Time|    rms[Rho]|
+--------------------------------------+
|         510|  0.0000e+00|   -3.975433|
|         520|  0.0000e+00|   -3.963072|
|         530|  0.0000e+00|   -3.957761|
|         540|  0.0000e+00|   -4.017677|
|         550|  0.0000e+00|   -4.022553|
+-----------------------------------------------------------------------+
|        File Writing Summary       |              Filename             |
+-----------------------------------------------------------------------+
|SU2 binary restart                 |restart_flow_databladeVALIDATION_Blade_24.dat|
|                                   |                     (9988.17 MB/s)|
|Paraview                           |volume_flow_databladeVALIDATION_Blade_24.vtu|
|                                   |                     (1033.52 MB/s)|
|Paraview surface                   |surface_flowdatabladeVALIDATION_Blade_24.vtu|
|                                   |                     (105.122 MB/s)|
|SU2 ASCII restart                  |restart_flow_databladeVALIDATION_Blade_24.csv|
|                                   |                     (21.9506 MB/s)|
|CSV file                           |surface_flowdatabladeVALIDATION_Blade_24.csv|
|                                   |                     (21.5701 MB/s)|
+-----------------------------------------------------------------------+
+--------------------------------------+
|  Inner_Iter|    Cur_Time|    rms[Rho]|
+--------------------------------------+
|         560|  0.0000e+00|   -3.943950|
|         570|  0.0000e+00|   -3.974888|
|         580|  0.0000e+00|   -3.947988|
|         590|  0.0000e+00|   -4.011270|
|         600|  0.0000e+00|   -4.020713|
+-----------------------------------------------------------------------+
|        File Writing Summary       |              Filename             |
+-----------------------------------------------------------------------+
|SU2 binary restart                 |restart_flow_databladeVALIDATION_Blade_24.dat|
|                                   |                       (10633 MB/s)|
|Paraview                           |volume_flow_databladeVALIDATION_Blade_24.vtu|
|                                   |                     (945.418 MB/s)|
|Paraview surface                   |surface_flowdatabladeVALIDATION_Blade_24.vtu|
|                                   |                     (76.1845 MB/s)|
|SU2 ASCII restart                  |restart_flow_databladeVALIDATION_Blade_24.csv|
|                                   |                     (21.9158 MB/s)|
|CSV file                           |surface_flowdatabladeVALIDATION_Blade_24.csv|
|                                   |                     (20.1859 MB/s)|
+-----------------------------------------------------------------------+
+--------------------------------------+
|  Inner_Iter|    Cur_Time|    rms[Rho]|
+--------------------------------------+
|         610|  0.0000e+00|   -4.001598|
|         620|  0.0000e+00|   -4.034482|
|         630|  0.0000e+00|   -4.065046|
|         640|  0.0000e+00|   -4.076689|
|         650|  0.0000e+00|   -4.079109|
+-----------------------------------------------------------------------+
|        File Writing Summary       |              Filename             |
+-----------------------------------------------------------------------+
|SU2 binary restart                 |restart_flow_databladeVALIDATION_Blade_24.dat|
|                                   |                     (8778.34 MB/s)|
|Paraview                           |volume_flow_databladeVALIDATION_Blade_24.vtu|
|                                   |                     (1029.11 MB/s)|
|Paraview surface                   |surface_flowdatabladeVALIDATION_Blade_24.vtu|
|                                   |                     (138.079 MB/s)|
|SU2 ASCII restart                  |restart_flow_databladeVALIDATION_Blade_24.csv|
|                                   |                      (22.309 MB/s)|
|CSV file                           |surface_flowdatabladeVALIDATION_Blade_24.csv|
|                                   |                     (21.4644 MB/s)|
+-----------------------------------------------------------------------+
+--------------------------------------+
|  Inner_Iter|    Cur_Time|    rms[Rho]|
+--------------------------------------+
|         660|  0.0000e+00|   -4.111070|
|         670|  0.0000e+00|   -4.120053|
|         680|  0.0000e+00|   -4.083695|
|         690|  0.0000e+00|   -4.100230|
|         700|  0.0000e+00|   -4.147806|
+-----------------------------------------------------------------------+
|        File Writing Summary       |              Filename             |
+-----------------------------------------------------------------------+
|SU2 binary restart                 |restart_flow_databladeVALIDATION_Blade_24.dat|
|                                   |                     (12036.3 MB/s)|
|Paraview                           |volume_flow_databladeVALIDATION_Blade_24.vtu|
|                                   |                      (1014.1 MB/s)|
|Paraview surface                   |surface_flowdatabladeVALIDATION_Blade_24.vtu|
|                                   |                     (105.259 MB/s)|
|SU2 ASCII restart                  |restart_flow_databladeVALIDATION_Blade_24.csv|
|                                   |                     (21.9433 MB/s)|
|CSV file                           |surface_flowdatabladeVALIDATION_Blade_24.csv|
|                                   |                     (21.5007 MB/s)|
+-----------------------------------------------------------------------+
+--------------------------------------+
|  Inner_Iter|    Cur_Time|    rms[Rho]|
+--------------------------------------+
|         710|  0.0000e+00|   -4.173992|
|         720|  0.0000e+00|   -4.154598|
|         730|  0.0000e+00|   -4.218960|
|         740|  0.0000e+00|   -4.243194|
|         750|  0.0000e+00|   -4.273303|
+-----------------------------------------------------------------------+
|        File Writing Summary       |              Filename             |
+-----------------------------------------------------------------------+
|SU2 binary restart                 |restart_flow_databladeVALIDATION_Blade_24.dat|
|                                   |                     (11607.4 MB/s)|
|Paraview                           |volume_flow_databladeVALIDATION_Blade_24.vtu|
|                                   |                     (1085.73 MB/s)|
|Paraview surface                   |surface_flowdatabladeVALIDATION_Blade_24.vtu|
|                                   |                     (96.9385 MB/s)|
|SU2 ASCII restart                  |restart_flow_databladeVALIDATION_Blade_24.csv|
|                                   |                     (22.2059 MB/s)|
|CSV file                           |surface_flowdatabladeVALIDATION_Blade_24.csv|
|                                   |                     (20.6716 MB/s)|
+-----------------------------------------------------------------------+
+--------------------------------------+
|  Inner_Iter|    Cur_Time|    rms[Rho]|
+--------------------------------------+
|         760|  0.0000e+00|   -4.308760|
|         770|  0.0000e+00|   -4.319348|
|         780|  0.0000e+00|   -4.301628|
|         790|  0.0000e+00|   -4.329022|
|         800|  0.0000e+00|   -4.355709|
+-----------------------------------------------------------------------+
|        File Writing Summary       |              Filename             |
+-----------------------------------------------------------------------+
|SU2 binary restart                 |restart_flow_databladeVALIDATION_Blade_24.dat|
|                                   |                       (12807 MB/s)|
|Paraview                           |volume_flow_databladeVALIDATION_Blade_24.vtu|
|                                   |                     (1053.81 MB/s)|
|Paraview surface                   |surface_flowdatabladeVALIDATION_Blade_24.vtu|
|                                   |                     (92.1935 MB/s)|
|SU2 ASCII restart                  |restart_flow_databladeVALIDATION_Blade_24.csv|
|                                   |                     (22.1489 MB/s)|
|CSV file                           |surface_flowdatabladeVALIDATION_Blade_24.csv|
|                                   |                     (20.1514 MB/s)|
+-----------------------------------------------------------------------+
+--------------------------------------+
|  Inner_Iter|    Cur_Time|    rms[Rho]|
+--------------------------------------+
|         810|  0.0000e+00|   -4.404814|
|         820|  0.0000e+00|   -4.435311|
|         830|  0.0000e+00|   -4.435323|
|         840|  0.0000e+00|   -4.470443|
|         850|  0.0000e+00|   -4.523632|
+-----------------------------------------------------------------------+
|        File Writing Summary       |              Filename             |
+-----------------------------------------------------------------------+
|SU2 binary restart                 |restart_flow_databladeVALIDATION_Blade_24.dat|
|                                   |                     (11310.5 MB/s)|
|Paraview                           |volume_flow_databladeVALIDATION_Blade_24.vtu|
|                                   |                     (1034.74 MB/s)|
|Paraview surface                   |surface_flowdatabladeVALIDATION_Blade_24.vtu|
|                                   |                     (106.945 MB/s)|
|SU2 ASCII restart                  |restart_flow_databladeVALIDATION_Blade_24.csv|
|                                   |                     (21.8508 MB/s)|
|CSV file                           |surface_flowdatabladeVALIDATION_Blade_24.csv|
|                                   |                     (22.2621 MB/s)|
+-----------------------------------------------------------------------+
+--------------------------------------+
|  Inner_Iter|    Cur_Time|    rms[Rho]|
+--------------------------------------+
|         860|  0.0000e+00|   -4.515868|
|         870|  0.0000e+00|   -4.546264|
|         880|  0.0000e+00|   -4.557154|
|         890|  0.0000e+00|   -4.552618|
|         900|  0.0000e+00|   -4.531847|
+-----------------------------------------------------------------------+
|        File Writing Summary       |              Filename             |
+-----------------------------------------------------------------------+
|SU2 binary restart                 |restart_flow_databladeVALIDATION_Blade_24.dat|
|                                   |                      (8922.5 MB/s)|
|Paraview                           |volume_flow_databladeVALIDATION_Blade_24.vtu|
|                                   |                      (1158.4 MB/s)|
|Paraview surface                   |surface_flowdatabladeVALIDATION_Blade_24.vtu|
|                                   |                      (89.417 MB/s)|
|SU2 ASCII restart                  |restart_flow_databladeVALIDATION_Blade_24.csv|
|                                   |                     (22.2009 MB/s)|
|CSV file                           |surface_flowdatabladeVALIDATION_Blade_24.csv|
|                                   |                      (22.469 MB/s)|
+-----------------------------------------------------------------------+
+--------------------------------------+
|  Inner_Iter|    Cur_Time|    rms[Rho]|
+--------------------------------------+
|         910|  0.0000e+00|   -4.557120|
|         920|  0.0000e+00|   -4.531644|
|         930|  0.0000e+00|   -4.524862|
|         940|  0.0000e+00|   -4.547030|
|         950|  0.0000e+00|   -4.548440|
+-----------------------------------------------------------------------+
|        File Writing Summary       |              Filename             |
+-----------------------------------------------------------------------+
|SU2 binary restart                 |restart_flow_databladeVALIDATION_Blade_24.dat|
|                                   |                       (12773 MB/s)|
|Paraview                           |volume_flow_databladeVALIDATION_Blade_24.vtu|
|                                   |                     (1057.48 MB/s)|
|Paraview surface                   |surface_flowdatabladeVALIDATION_Blade_24.vtu|
|                                   |                     (106.318 MB/s)|
|SU2 ASCII restart                  |restart_flow_databladeVALIDATION_Blade_24.csv|
|                                   |                     (21.6879 MB/s)|
|CSV file                           |surface_flowdatabladeVALIDATION_Blade_24.csv|
|                                   |                     (21.3476 MB/s)|
+-----------------------------------------------------------------------+
+--------------------------------------+
|  Inner_Iter|    Cur_Time|    rms[Rho]|
+--------------------------------------+
|         960|  0.0000e+00|   -4.530324|
|         970|  0.0000e+00|   -4.563475|
|         980|  0.0000e+00|   -4.591742|
|         990|  0.0000e+00|   -4.604346|
|        1000|  0.0000e+00|   -4.589654|
+-----------------------------------------------------------------------+
|        File Writing Summary       |              Filename             |
+-----------------------------------------------------------------------+
|SU2 binary restart                 |restart_flow_databladeVALIDATION_Blade_24.dat|
|                                   |                     (10477.3 MB/s)|
|Paraview                           |volume_flow_databladeVALIDATION_Blade_24.vtu|
|                                   |                     (1030.46 MB/s)|
|Paraview surface                   |surface_flowdatabladeVALIDATION_Blade_24.vtu|
|                                   |                     (101.059 MB/s)|
|SU2 ASCII restart                  |restart_flow_databladeVALIDATION_Blade_24.csv|
|                                   |                     (21.8523 MB/s)|
|CSV file                           |surface_flowdatabladeVALIDATION_Blade_24.csv|
|                                   |                     (20.3641 MB/s)|
+-----------------------------------------------------------------------+
+--------------------------------------+
|  Inner_Iter|    Cur_Time|    rms[Rho]|
+--------------------------------------+
|        1010|  0.0000e+00|   -4.610929|
|        1020|  0.0000e+00|   -4.607900|
|        1030|  0.0000e+00|   -4.621078|
|        1040|  0.0000e+00|   -4.606984|
|        1050|  0.0000e+00|   -4.614657|
+-----------------------------------------------------------------------+
|        File Writing Summary       |              Filename             |
+-----------------------------------------------------------------------+
|SU2 binary restart                 |restart_flow_databladeVALIDATION_Blade_24.dat|
|                                   |                     (9840.36 MB/s)|
|Paraview                           |volume_flow_databladeVALIDATION_Blade_24.vtu|
|                                   |                     (818.185 MB/s)|
|Paraview surface                   |surface_flowdatabladeVALIDATION_Blade_24.vtu|
|                                   |                     (75.0252 MB/s)|
|SU2 ASCII restart                  |restart_flow_databladeVALIDATION_Blade_24.csv|
|                                   |                     (21.6901 MB/s)|
|CSV file                           |surface_flowdatabladeVALIDATION_Blade_24.csv|
|                                   |                     (21.1044 MB/s)|
+-----------------------------------------------------------------------+
+--------------------------------------+
|  Inner_Iter|    Cur_Time|    rms[Rho]|
+--------------------------------------+
|        1060|  0.0000e+00|   -4.640309|
|        1070|  0.0000e+00|   -4.648862|
|        1080|  0.0000e+00|   -4.642404|
|        1090|  0.0000e+00|   -4.679084|
|        1100|  0.0000e+00|   -4.699238|
+-----------------------------------------------------------------------+
|        File Writing Summary       |              Filename             |
+-----------------------------------------------------------------------+
|SU2 binary restart                 |restart_flow_databladeVALIDATION_Blade_24.dat|
|                                   |                     (9161.95 MB/s)|
|Paraview                           |volume_flow_databladeVALIDATION_Blade_24.vtu|
|                                   |                     (955.039 MB/s)|
|Paraview surface                   |surface_flowdatabladeVALIDATION_Blade_24.vtu|
|                                   |                     (92.7896 MB/s)|
|SU2 ASCII restart                  |restart_flow_databladeVALIDATION_Blade_24.csv|
|                                   |                     (21.7057 MB/s)|
|CSV file                           |surface_flowdatabladeVALIDATION_Blade_24.csv|
|                                   |                     (21.1239 MB/s)|
+-----------------------------------------------------------------------+
+--------------------------------------+
|  Inner_Iter|    Cur_Time|    rms[Rho]|
+--------------------------------------+
|        1110|  0.0000e+00|   -4.705618|
|        1120|  0.0000e+00|   -4.681254|
|        1130|  0.0000e+00|   -4.703023|
|        1140|  0.0000e+00|   -4.722575|
|        1150|  0.0000e+00|   -4.733246|
+-----------------------------------------------------------------------+
|        File Writing Summary       |              Filename             |
+-----------------------------------------------------------------------+
|SU2 binary restart                 |restart_flow_databladeVALIDATION_Blade_24.dat|
|                                   |                     (11217.3 MB/s)|
|Paraview                           |volume_flow_databladeVALIDATION_Blade_24.vtu|
|                                   |                     (987.298 MB/s)|
|Paraview surface                   |surface_flowdatabladeVALIDATION_Blade_24.vtu|
|                                   |                     (101.433 MB/s)|
|SU2 ASCII restart                  |restart_flow_databladeVALIDATION_Blade_24.csv|
|                                   |                      (21.877 MB/s)|
|CSV file                           |surface_flowdatabladeVALIDATION_Blade_24.csv|
|                                   |                     (20.8732 MB/s)|
+-----------------------------------------------------------------------+
+--------------------------------------+
|  Inner_Iter|    Cur_Time|    rms[Rho]|
+--------------------------------------+
|        1160|  0.0000e+00|   -4.726195|
|        1170|  0.0000e+00|   -4.745592|
|        1180|  0.0000e+00|   -4.773300|
|        1190|  0.0000e+00|   -4.771210|
|        1200|  0.0000e+00|   -4.762715|
+-----------------------------------------------------------------------+
|        File Writing Summary       |              Filename             |
+-----------------------------------------------------------------------+
|SU2 binary restart                 |restart_flow_databladeVALIDATION_Blade_24.dat|
|                                   |                     (9441.04 MB/s)|
|Paraview                           |volume_flow_databladeVALIDATION_Blade_24.vtu|
|                                   |                     (1053.05 MB/s)|
|Paraview surface                   |surface_flowdatabladeVALIDATION_Blade_24.vtu|
|                                   |                     (71.6175 MB/s)|
|SU2 ASCII restart                  |restart_flow_databladeVALIDATION_Blade_24.csv|
|                                   |                     (22.0765 MB/s)|
|CSV file                           |surface_flowdatabladeVALIDATION_Blade_24.csv|
|                                   |                     (21.5341 MB/s)|
+-----------------------------------------------------------------------+
+--------------------------------------+
|  Inner_Iter|    Cur_Time|    rms[Rho]|
+--------------------------------------+
|        1210|  0.0000e+00|   -4.782549|
|        1220|  0.0000e+00|   -4.762783|
|        1230|  0.0000e+00|   -4.779472|
|        1240|  0.0000e+00|   -4.814926|
|        1250|  0.0000e+00|   -4.811053|
+-----------------------------------------------------------------------+
|        File Writing Summary       |              Filename             |
+-----------------------------------------------------------------------+
|SU2 binary restart                 |restart_flow_databladeVALIDATION_Blade_24.dat|
|                                   |                     (9810.57 MB/s)|
|Paraview                           |volume_flow_databladeVALIDATION_Blade_24.vtu|
|                                   |                      (1180.7 MB/s)|
|Paraview surface                   |surface_flowdatabladeVALIDATION_Blade_24.vtu|
|                                   |                     (138.285 MB/s)|
|SU2 ASCII restart                  |restart_flow_databladeVALIDATION_Blade_24.csv|
|                                   |                      (21.764 MB/s)|
|CSV file                           |surface_flowdatabladeVALIDATION_Blade_24.csv|
|                                   |                     (21.5205 MB/s)|
+-----------------------------------------------------------------------+
+--------------------------------------+
|  Inner_Iter|    Cur_Time|    rms[Rho]|
+--------------------------------------+
|        1260|  0.0000e+00|   -4.829002|
|        1270|  0.0000e+00|   -4.836327|
|        1280|  0.0000e+00|   -4.829049|
|        1290|  0.0000e+00|   -4.828348|
|        1300|  0.0000e+00|   -4.836244|
+-----------------------------------------------------------------------+
|        File Writing Summary       |              Filename             |
+-----------------------------------------------------------------------+
|SU2 binary restart                 |restart_flow_databladeVALIDATION_Blade_24.dat|
|                                   |                     (10402.7 MB/s)|
|Paraview                           |volume_flow_databladeVALIDATION_Blade_24.vtu|
|                                   |                     (1038.45 MB/s)|
|Paraview surface                   |surface_flowdatabladeVALIDATION_Blade_24.vtu|
|                                   |                     (84.2222 MB/s)|
|SU2 ASCII restart                  |restart_flow_databladeVALIDATION_Blade_24.csv|
|                                   |                     (22.1568 MB/s)|
|CSV file                           |surface_flowdatabladeVALIDATION_Blade_24.csv|
|                                   |                     (19.0849 MB/s)|
+-----------------------------------------------------------------------+
+--------------------------------------+
|  Inner_Iter|    Cur_Time|    rms[Rho]|
+--------------------------------------+
|        1310|  0.0000e+00|   -4.826429|
|        1320|  0.0000e+00|   -4.842717|
|        1330|  0.0000e+00|   -4.835275|
|        1340|  0.0000e+00|   -4.844054|
|        1350|  0.0000e+00|   -4.855374|
+-----------------------------------------------------------------------+
|        File Writing Summary       |              Filename             |
+-----------------------------------------------------------------------+
|SU2 binary restart                 |restart_flow_databladeVALIDATION_Blade_24.dat|
|                                   |                     (12375.6 MB/s)|
|Paraview                           |volume_flow_databladeVALIDATION_Blade_24.vtu|
|                                   |                     (1126.14 MB/s)|
|Paraview surface                   |surface_flowdatabladeVALIDATION_Blade_24.vtu|
|                                   |                     (80.6766 MB/s)|
|SU2 ASCII restart                  |restart_flow_databladeVALIDATION_Blade_24.csv|
|                                   |                      (21.323 MB/s)|
|CSV file                           |surface_flowdatabladeVALIDATION_Blade_24.csv|
|                                   |                     (21.5466 MB/s)|
+-----------------------------------------------------------------------+
+--------------------------------------+
|  Inner_Iter|    Cur_Time|    rms[Rho]|
+--------------------------------------+
|        1360|  0.0000e+00|   -4.858238|
|        1370|  0.0000e+00|   -4.853096|
|        1380|  0.0000e+00|   -4.866803|
|        1390|  0.0000e+00|   -4.878351|
|        1400|  0.0000e+00|   -4.878580|
+-----------------------------------------------------------------------+
|        File Writing Summary       |              Filename             |
+-----------------------------------------------------------------------+
|SU2 binary restart                 |restart_flow_databladeVALIDATION_Blade_24.dat|
|                                   |                     (9419.58 MB/s)|
|Paraview                           |volume_flow_databladeVALIDATION_Blade_24.vtu|
|                                   |                     (1084.19 MB/s)|
|Paraview surface                   |surface_flowdatabladeVALIDATION_Blade_24.vtu|
|                                   |                     (88.2452 MB/s)|
|SU2 ASCII restart                  |restart_flow_databladeVALIDATION_Blade_24.csv|
|                                   |                     (21.6991 MB/s)|
|CSV file                           |surface_flowdatabladeVALIDATION_Blade_24.csv|
|                                   |                      (21.973 MB/s)|
+-----------------------------------------------------------------------+
+--------------------------------------+
|  Inner_Iter|    Cur_Time|    rms[Rho]|
+--------------------------------------+
|        1410|  0.0000e+00|   -4.882278|
|        1420|  0.0000e+00|   -4.907309|
|        1430|  0.0000e+00|   -4.945532|
|        1440|  0.0000e+00|   -4.983315|
|        1450|  0.0000e+00|   -5.008967|
+-----------------------------------------------------------------------+
|        File Writing Summary       |              Filename             |
+-----------------------------------------------------------------------+
|SU2 binary restart                 |restart_flow_databladeVALIDATION_Blade_24.dat|
|                                   |                     (10645.7 MB/s)|
|Paraview                           |volume_flow_databladeVALIDATION_Blade_24.vtu|
|                                   |                     (1000.55 MB/s)|
|Paraview surface                   |surface_flowdatabladeVALIDATION_Blade_24.vtu|
|                                   |                     (136.477 MB/s)|
|SU2 ASCII restart                  |restart_flow_databladeVALIDATION_Blade_24.csv|
|                                   |                     (21.2726 MB/s)|
|CSV file                           |surface_flowdatabladeVALIDATION_Blade_24.csv|
|                                   |                     (20.1469 MB/s)|
+-----------------------------------------------------------------------+
+--------------------------------------+
|  Inner_Iter|    Cur_Time|    rms[Rho]|
+--------------------------------------+
|        1460|  0.0000e+00|   -5.021933|
|        1470|  0.0000e+00|   -5.030748|
|        1480|  0.0000e+00|   -5.035831|
|        1490|  0.0000e+00|   -5.037795|
|        1500|  0.0000e+00|   -5.047779|
+-----------------------------------------------------------------------+
|        File Writing Summary       |              Filename             |
+-----------------------------------------------------------------------+
|SU2 binary restart                 |restart_flow_databladeVALIDATION_Blade_24.dat|
|                                   |                     (11390.8 MB/s)|
|Paraview                           |volume_flow_databladeVALIDATION_Blade_24.vtu|
|                                   |                     (1019.69 MB/s)|
|Paraview surface                   |surface_flowdatabladeVALIDATION_Blade_24.vtu|
|                                   |                     (106.812 MB/s)|
|SU2 ASCII restart                  |restart_flow_databladeVALIDATION_Blade_24.csv|
|                                   |                     (21.8664 MB/s)|
|CSV file                           |surface_flowdatabladeVALIDATION_Blade_24.csv|
|                                   |                     (22.3548 MB/s)|
+-----------------------------------------------------------------------+
+--------------------------------------+
|  Inner_Iter|    Cur_Time|    rms[Rho]|
+--------------------------------------+
|        1510|  0.0000e+00|   -5.042216|
|        1520|  0.0000e+00|   -5.049861|
|        1530|  0.0000e+00|   -5.052283|
|        1540|  0.0000e+00|   -5.038524|
|        1550|  0.0000e+00|   -5.046970|
+-----------------------------------------------------------------------+
|        File Writing Summary       |              Filename             |
+-----------------------------------------------------------------------+
|SU2 binary restart                 |restart_flow_databladeVALIDATION_Blade_24.dat|
|                                   |                     (12539.3 MB/s)|
|Paraview                           |volume_flow_databladeVALIDATION_Blade_24.vtu|
|                                   |                     (994.077 MB/s)|
|Paraview surface                   |surface_flowdatabladeVALIDATION_Blade_24.vtu|
|                                   |                     (105.605 MB/s)|
|SU2 ASCII restart                  |restart_flow_databladeVALIDATION_Blade_24.csv|
|                                   |                     (21.8559 MB/s)|
|CSV file                           |surface_flowdatabladeVALIDATION_Blade_24.csv|
|                                   |                     (22.1956 MB/s)|
+-----------------------------------------------------------------------+
+--------------------------------------+
|  Inner_Iter|    Cur_Time|    rms[Rho]|
+--------------------------------------+
|        1560|  0.0000e+00|   -5.058704|
|        1570|  0.0000e+00|   -5.059991|
|        1580|  0.0000e+00|   -5.062244|
|        1590|  0.0000e+00|   -5.077219|
|        1600|  0.0000e+00|   -5.090104|
+-----------------------------------------------------------------------+
|        File Writing Summary       |              Filename             |
+-----------------------------------------------------------------------+
|SU2 binary restart                 |restart_flow_databladeVALIDATION_Blade_24.dat|
|                                   |                     (10112.9 MB/s)|
|Paraview                           |volume_flow_databladeVALIDATION_Blade_24.vtu|
|                                   |                     (1008.55 MB/s)|
|Paraview surface                   |surface_flowdatabladeVALIDATION_Blade_24.vtu|
|                                   |                     (82.4902 MB/s)|
|SU2 ASCII restart                  |restart_flow_databladeVALIDATION_Blade_24.csv|
|                                   |                     (21.8561 MB/s)|
|CSV file                           |surface_flowdatabladeVALIDATION_Blade_24.csv|
|                                   |                     (21.7298 MB/s)|
+-----------------------------------------------------------------------+
+--------------------------------------+
|  Inner_Iter|    Cur_Time|    rms[Rho]|
+--------------------------------------+
|        1610|  0.0000e+00|   -5.090934|
|        1620|  0.0000e+00|   -5.111377|
|        1630|  0.0000e+00|   -5.125261|
|        1640|  0.0000e+00|   -5.132990|
|        1650|  0.0000e+00|   -5.143384|
+-----------------------------------------------------------------------+
|        File Writing Summary       |              Filename             |
+-----------------------------------------------------------------------+
|SU2 binary restart                 |restart_flow_databladeVALIDATION_Blade_24.dat|
|                                   |                     (10417.9 MB/s)|
|Paraview                           |volume_flow_databladeVALIDATION_Blade_24.vtu|
|                                   |                     (965.545 MB/s)|
|Paraview surface                   |surface_flowdatabladeVALIDATION_Blade_24.vtu|
|                                   |                     (105.471 MB/s)|
|SU2 ASCII restart                  |restart_flow_databladeVALIDATION_Blade_24.csv|
|                                   |                     (21.9665 MB/s)|
|CSV file                           |surface_flowdatabladeVALIDATION_Blade_24.csv|
|                                   |                     (20.1527 MB/s)|
+-----------------------------------------------------------------------+
+--------------------------------------+
|  Inner_Iter|    Cur_Time|    rms[Rho]|
+--------------------------------------+
|        1660|  0.0000e+00|   -5.167581|
|        1670|  0.0000e+00|   -5.200718|
|        1680|  0.0000e+00|   -5.203152|
|        1690|  0.0000e+00|   -5.222462|
|        1700|  0.0000e+00|   -5.231371|
+-----------------------------------------------------------------------+
|        File Writing Summary       |              Filename             |
+-----------------------------------------------------------------------+
|SU2 binary restart                 |restart_flow_databladeVALIDATION_Blade_24.dat|
|                                   |                     (9725.44 MB/s)|
|Paraview                           |volume_flow_databladeVALIDATION_Blade_24.vtu|
|                                   |                     (1004.47 MB/s)|
|Paraview surface                   |surface_flowdatabladeVALIDATION_Blade_24.vtu|
|                                   |                     (100.932 MB/s)|
|SU2 ASCII restart                  |restart_flow_databladeVALIDATION_Blade_24.csv|
|                                   |                     (21.8371 MB/s)|
|CSV file                           |surface_flowdatabladeVALIDATION_Blade_24.csv|
|                                   |                      (20.766 MB/s)|
+-----------------------------------------------------------------------+
+--------------------------------------+
|  Inner_Iter|    Cur_Time|    rms[Rho]|
+--------------------------------------+
|        1710|  0.0000e+00|   -5.233500|
|        1720|  0.0000e+00|   -5.247462|
|        1730|  0.0000e+00|   -5.252123|
|        1740|  0.0000e+00|   -5.245434|
|        1750|  0.0000e+00|   -5.247454|
+-----------------------------------------------------------------------+
|        File Writing Summary       |              Filename             |
+-----------------------------------------------------------------------+
|SU2 binary restart                 |restart_flow_databladeVALIDATION_Blade_24.dat|
|                                   |                     (10785.5 MB/s)|
|Paraview                           |volume_flow_databladeVALIDATION_Blade_24.vtu|
|                                   |                     (1080.46 MB/s)|
|Paraview surface                   |surface_flowdatabladeVALIDATION_Blade_24.vtu|
|                                   |                     (95.0617 MB/s)|
|SU2 ASCII restart                  |restart_flow_databladeVALIDATION_Blade_24.csv|
|                                   |                     (21.9519 MB/s)|
|CSV file                           |surface_flowdatabladeVALIDATION_Blade_24.csv|
|                                   |                     (21.2995 MB/s)|
+-----------------------------------------------------------------------+
+--------------------------------------+
|  Inner_Iter|    Cur_Time|    rms[Rho]|
+--------------------------------------+
|        1760|  0.0000e+00|   -5.256719|
|        1770|  0.0000e+00|   -5.255713|
|        1780|  0.0000e+00|   -5.240698|
|        1790|  0.0000e+00|   -5.258333|
|        1800|  0.0000e+00|   -5.255551|
+-----------------------------------------------------------------------+
|        File Writing Summary       |              Filename             |
+-----------------------------------------------------------------------+
|SU2 binary restart                 |restart_flow_databladeVALIDATION_Blade_24.dat|
|                                   |                     (12253.9 MB/s)|
|Paraview                           |volume_flow_databladeVALIDATION_Blade_24.vtu|
|                                   |                     (1034.65 MB/s)|
|Paraview surface                   |surface_flowdatabladeVALIDATION_Blade_24.vtu|
|                                   |                     (104.884 MB/s)|
|SU2 ASCII restart                  |restart_flow_databladeVALIDATION_Blade_24.csv|
|                                   |                     (21.3376 MB/s)|
|CSV file                           |surface_flowdatabladeVALIDATION_Blade_24.csv|
|                                   |                     (21.4394 MB/s)|
+-----------------------------------------------------------------------+
+--------------------------------------+
|  Inner_Iter|    Cur_Time|    rms[Rho]|
+--------------------------------------+
|        1810|  0.0000e+00|   -5.246891|
|        1820|  0.0000e+00|   -5.256269|
|        1830|  0.0000e+00|   -5.259761|
|        1840|  0.0000e+00|   -5.255112|
|        1850|  0.0000e+00|   -5.253088|
+-----------------------------------------------------------------------+
|        File Writing Summary       |              Filename             |
+-----------------------------------------------------------------------+
|SU2 binary restart                 |restart_flow_databladeVALIDATION_Blade_24.dat|
|                                   |                     (10569.3 MB/s)|
|Paraview                           |volume_flow_databladeVALIDATION_Blade_24.vtu|
|                                   |                      (754.52 MB/s)|
|Paraview surface                   |surface_flowdatabladeVALIDATION_Blade_24.vtu|
|                                   |                     (76.1244 MB/s)|
|SU2 ASCII restart                  |restart_flow_databladeVALIDATION_Blade_24.csv|
|                                   |                     (19.8652 MB/s)|
|CSV file                           |surface_flowdatabladeVALIDATION_Blade_24.csv|
|                                   |                      (20.101 MB/s)|
+-----------------------------------------------------------------------+
+--------------------------------------+
|  Inner_Iter|    Cur_Time|    rms[Rho]|
+--------------------------------------+
|        1860|  0.0000e+00|   -5.262022|
|        1870|  0.0000e+00|   -5.263383|
|        1880|  0.0000e+00|   -5.256985|
|        1890|  0.0000e+00|   -5.265118|
|        1900|  0.0000e+00|   -5.276144|
+-----------------------------------------------------------------------+
|        File Writing Summary       |              Filename             |
+-----------------------------------------------------------------------+
|SU2 binary restart                 |restart_flow_databladeVALIDATION_Blade_24.dat|
|                                   |                     (3542.15 MB/s)|
|Paraview                           |volume_flow_databladeVALIDATION_Blade_24.vtu|
|                                   |                     (703.667 MB/s)|
|Paraview surface                   |surface_flowdatabladeVALIDATION_Blade_24.vtu|
|                                   |                     (39.4382 MB/s)|
|SU2 ASCII restart                  |restart_flow_databladeVALIDATION_Blade_24.csv|
|                                   |                     (20.3702 MB/s)|
|CSV file                           |surface_flowdatabladeVALIDATION_Blade_24.csv|
|                                   |                     (19.4143 MB/s)|
+-----------------------------------------------------------------------+
+--------------------------------------+
|  Inner_Iter|    Cur_Time|    rms[Rho]|
+--------------------------------------+
|        1910|  0.0000e+00|   -5.301406|
|        1920|  0.0000e+00|   -5.328563|
|        1930|  0.0000e+00|   -5.332748|
|        1940|  0.0000e+00|   -5.341960|
|        1950|  0.0000e+00|   -5.361614|
+-----------------------------------------------------------------------+
|        File Writing Summary       |              Filename             |
+-----------------------------------------------------------------------+
|SU2 binary restart                 |restart_flow_databladeVALIDATION_Blade_24.dat|
|                                   |                     (10174.7 MB/s)|
|Paraview                           |volume_flow_databladeVALIDATION_Blade_24.vtu|
|                                   |                     (1058.84 MB/s)|
|Paraview surface                   |surface_flowdatabladeVALIDATION_Blade_24.vtu|
|                                   |                     (101.331 MB/s)|
|SU2 ASCII restart                  |restart_flow_databladeVALIDATION_Blade_24.csv|
|                                   |                     (21.6368 MB/s)|
|CSV file                           |surface_flowdatabladeVALIDATION_Blade_24.csv|
|                                   |                     (21.0289 MB/s)|
+-----------------------------------------------------------------------+
+--------------------------------------+
|  Inner_Iter|    Cur_Time|    rms[Rho]|
+--------------------------------------+
|        1960|  0.0000e+00|   -5.366806|
|        1970|  0.0000e+00|   -5.370434|
|        1980|  0.0000e+00|   -5.389691|
|        1990|  0.0000e+00|   -5.385447|
|        2000|  0.0000e+00|   -5.418709|
+-----------------------------------------------------------------------+
|        File Writing Summary       |              Filename             |
+-----------------------------------------------------------------------+
|SU2 binary restart                 |restart_flow_databladeVALIDATION_Blade_24.dat|
|                                   |                       (13360 MB/s)|
|Paraview                           |volume_flow_databladeVALIDATION_Blade_24.vtu|
|                                   |                     (1051.06 MB/s)|
|Paraview surface                   |surface_flowdatabladeVALIDATION_Blade_24.vtu|
|                                   |                     (93.7057 MB/s)|
|SU2 ASCII restart                  |restart_flow_databladeVALIDATION_Blade_24.csv|
|                                   |                     (21.6581 MB/s)|
|CSV file                           |surface_flowdatabladeVALIDATION_Blade_24.csv|
|                                   |                     (21.1053 MB/s)|
+-----------------------------------------------------------------------+
+--------------------------------------+
|  Inner_Iter|    Cur_Time|    rms[Rho]|
+--------------------------------------+
|        2010|  0.0000e+00|   -5.412571|
|        2020|  0.0000e+00|   -5.415748|
|        2030|  0.0000e+00|   -5.430315|
|        2040|  0.0000e+00|   -5.395873|
|        2050|  0.0000e+00|   -5.426018|
+-----------------------------------------------------------------------+
|        File Writing Summary       |              Filename             |
+-----------------------------------------------------------------------+
|SU2 binary restart                 |restart_flow_databladeVALIDATION_Blade_24.dat|
|                                   |                      (9519.2 MB/s)|
|Paraview                           |volume_flow_databladeVALIDATION_Blade_24.vtu|
|                                   |                     (1057.28 MB/s)|
|Paraview surface                   |surface_flowdatabladeVALIDATION_Blade_24.vtu|
|                                   |                     (99.6388 MB/s)|
|SU2 ASCII restart                  |restart_flow_databladeVALIDATION_Blade_24.csv|
|                                   |                     (22.1994 MB/s)|
|CSV file                           |surface_flowdatabladeVALIDATION_Blade_24.csv|
|                                   |                     (22.4516 MB/s)|
+-----------------------------------------------------------------------+
+--------------------------------------+
|  Inner_Iter|    Cur_Time|    rms[Rho]|
+--------------------------------------+
|        2060|  0.0000e+00|   -5.425197|
|        2070|  0.0000e+00|   -5.399614|
|        2080|  0.0000e+00|   -5.425357|
|        2090|  0.0000e+00|   -5.422172|
|        2100|  0.0000e+00|   -5.480807|
+-----------------------------------------------------------------------+
|        File Writing Summary       |              Filename             |
+-----------------------------------------------------------------------+
|SU2 binary restart                 |restart_flow_databladeVALIDATION_Blade_24.dat|
|                                   |                     (8368.58 MB/s)|
|Paraview                           |volume_flow_databladeVALIDATION_Blade_24.vtu|
|                                   |                      (956.32 MB/s)|
|Paraview surface                   |surface_flowdatabladeVALIDATION_Blade_24.vtu|
|                                   |                     (78.6141 MB/s)|
|SU2 ASCII restart                  |restart_flow_databladeVALIDATION_Blade_24.csv|
|                                   |                     (21.8464 MB/s)|
|CSV file                           |surface_flowdatabladeVALIDATION_Blade_24.csv|
|                                   |                     (22.2692 MB/s)|
+-----------------------------------------------------------------------+
+--------------------------------------+
|  Inner_Iter|    Cur_Time|    rms[Rho]|
+--------------------------------------+
|        2110|  0.0000e+00|   -5.487153|
|        2120|  0.0000e+00|   -5.438799|
|        2130|  0.0000e+00|   -5.486289|
|        2140|  0.0000e+00|   -5.454614|
|        2150|  0.0000e+00|   -5.477581|
+-----------------------------------------------------------------------+
|        File Writing Summary       |              Filename             |
+-----------------------------------------------------------------------+
|SU2 binary restart                 |restart_flow_databladeVALIDATION_Blade_24.dat|
|                                   |                     (8318.97 MB/s)|
|Paraview                           |volume_flow_databladeVALIDATION_Blade_24.vtu|
|                                   |                      (1068.2 MB/s)|
|Paraview surface                   |surface_flowdatabladeVALIDATION_Blade_24.vtu|
|                                   |                      (88.113 MB/s)|
|SU2 ASCII restart                  |restart_flow_databladeVALIDATION_Blade_24.csv|
|                                   |                      (21.345 MB/s)|
|CSV file                           |surface_flowdatabladeVALIDATION_Blade_24.csv|
|                                   |                     (20.2398 MB/s)|
+-----------------------------------------------------------------------+
+--------------------------------------+
|  Inner_Iter|    Cur_Time|    rms[Rho]|
+--------------------------------------+
|        2160|  0.0000e+00|   -5.498264|
|        2170|  0.0000e+00|   -5.488954|
|        2180|  0.0000e+00|   -5.463302|
|        2190|  0.0000e+00|   -5.538919|
|        2200|  0.0000e+00|   -5.565791|
+-----------------------------------------------------------------------+
|        File Writing Summary       |              Filename             |
+-----------------------------------------------------------------------+
|SU2 binary restart                 |restart_flow_databladeVALIDATION_Blade_24.dat|
|                                   |                     (12214.5 MB/s)|
|Paraview                           |volume_flow_databladeVALIDATION_Blade_24.vtu|
|                                   |                     (1068.92 MB/s)|
|Paraview surface                   |surface_flowdatabladeVALIDATION_Blade_24.vtu|
|                                   |                     (99.3391 MB/s)|
|SU2 ASCII restart                  |restart_flow_databladeVALIDATION_Blade_24.csv|
|                                   |                     (21.2958 MB/s)|
|CSV file                           |surface_flowdatabladeVALIDATION_Blade_24.csv|
|                                   |                     (22.1548 MB/s)|
+-----------------------------------------------------------------------+
+--------------------------------------+
|  Inner_Iter|    Cur_Time|    rms[Rho]|
+--------------------------------------+
|        2210|  0.0000e+00|   -5.572210|
|        2220|  0.0000e+00|   -5.536461|
|        2230|  0.0000e+00|   -5.608081|
|        2240|  0.0000e+00|   -5.602899|
|        2250|  0.0000e+00|   -5.513370|
+-----------------------------------------------------------------------+
|        File Writing Summary       |              Filename             |
+-----------------------------------------------------------------------+
|SU2 binary restart                 |restart_flow_databladeVALIDATION_Blade_24.dat|
|                                   |                      (7346.4 MB/s)|
|Paraview                           |volume_flow_databladeVALIDATION_Blade_24.vtu|
|                                   |                     (995.188 MB/s)|
|Paraview surface                   |surface_flowdatabladeVALIDATION_Blade_24.vtu|
|                                   |                     (90.8524 MB/s)|
|SU2 ASCII restart                  |restart_flow_databladeVALIDATION_Blade_24.csv|
|                                   |                     (21.1501 MB/s)|
|CSV file                           |surface_flowdatabladeVALIDATION_Blade_24.csv|
|                                   |                     (20.3883 MB/s)|
+-----------------------------------------------------------------------+
+--------------------------------------+
|  Inner_Iter|    Cur_Time|    rms[Rho]|
+--------------------------------------+
|        2260|  0.0000e+00|   -5.514248|
|        2270|  0.0000e+00|   -5.523606|
|        2280|  0.0000e+00|   -5.560955|
|        2290|  0.0000e+00|   -5.611737|
|        2300|  0.0000e+00|   -5.647295|
+-----------------------------------------------------------------------+
|        File Writing Summary       |              Filename             |
+-----------------------------------------------------------------------+
|SU2 binary restart                 |restart_flow_databladeVALIDATION_Blade_24.dat|
|                                   |                      (9140.8 MB/s)|
|Paraview                           |volume_flow_databladeVALIDATION_Blade_24.vtu|
|                                   |                     (928.901 MB/s)|
|Paraview surface                   |surface_flowdatabladeVALIDATION_Blade_24.vtu|
|                                   |                     (107.026 MB/s)|
|SU2 ASCII restart                  |restart_flow_databladeVALIDATION_Blade_24.csv|
|                                   |                     (21.5939 MB/s)|
|CSV file                           |surface_flowdatabladeVALIDATION_Blade_24.csv|
|                                   |                     (21.6916 MB/s)|
+-----------------------------------------------------------------------+
+--------------------------------------+
|  Inner_Iter|    Cur_Time|    rms[Rho]|
+--------------------------------------+
|        2310|  0.0000e+00|   -5.669717|
|        2320|  0.0000e+00|   -5.699121|
|        2330|  0.0000e+00|   -5.724561|
|        2340|  0.0000e+00|   -5.662507|
|        2350|  0.0000e+00|   -5.708054|
+-----------------------------------------------------------------------+
|        File Writing Summary       |              Filename             |
+-----------------------------------------------------------------------+
|SU2 binary restart                 |restart_flow_databladeVALIDATION_Blade_24.dat|
|                                   |                     (5949.62 MB/s)|
|Paraview                           |volume_flow_databladeVALIDATION_Blade_24.vtu|
[...]
+-----------------------------------------------------------------------+
|        File Writing Summary       |              Filename             |
+-----------------------------------------------------------------------+
|SU2 binary restart                 |restart_flow_databladeVALIDATION_Blade_24.dat|
|                                   |                     (9129.56 MB/s)|
|Paraview                           |volume_flow_databladeVALIDATION_Blade_24.vtu|
|                                   |                     (261.175 MB/s)|
|Paraview surface                   |surface_flowdatabladeVALIDATION_Blade_24.vtu|
|                                   |                     (30.6671 MB/s)|
|SU2 ASCII restart                  |restart_flow_databladeVALIDATION_Blade_24.csv|
|                                   |                     (21.4166 MB/s)|
|CSV file                           |surface_flowdatabladeVALIDATION_Blade_24.csv|
|                                   |                     (20.6532 MB/s)|
+-----------------------------------------------------------------------+
+--------------------------------------+
|  Inner_Iter|    Cur_Time|    rms[Rho]|
+--------------------------------------+
|        3260|  0.0000e+00|   -6.611103|
|        3270|  0.0000e+00|   -6.627206|
|        3280|  0.0000e+00|   -6.637112|
|        3290|  0.0000e+00|   -6.640456|
|        3300|  0.0000e+00|   -6.638694|
+-----------------------------------------------------------------------+
|        File Writing Summary       |              Filename             |
+-----------------------------------------------------------------------+
|SU2 binary restart                 |restart_flow_databladeVALIDATION_Blade_24.dat|
|                                   |                     (10062.6 MB/s)|
|Paraview                           |volume_flow_databladeVALIDATION_Blade_24.vtu|
|                                   |                     (1108.91 MB/s)|
|Paraview surface                   |surface_flowdatabladeVALIDATION_Blade_24.vtu|
|                                   |                     (128.353 MB/s)|
|SU2 ASCII restart                  |restart_flow_databladeVALIDATION_Blade_24.csv|
|                                   |                     (21.7281 MB/s)|
|CSV file                           |surface_flowdatabladeVALIDATION_Blade_24.csv|
|                                   |                     (21.5516 MB/s)|
+-----------------------------------------------------------------------+
+--------------------------------------+
|  Inner_Iter|    Cur_Time|    rms[Rho]|
+--------------------------------------+
|        3310|  0.0000e+00|   -6.676397|
|        3320|  0.0000e+00|   -6.686495|
|        3330|  0.0000e+00|   -6.681264|
|        3340|  0.0000e+00|   -6.671240|
|        3350|  0.0000e+00|   -6.710785|
+-----------------------------------------------------------------------+
|        File Writing Summary       |              Filename             |
+-----------------------------------------------------------------------+
|SU2 binary restart                 |restart_flow_databladeVALIDATION_Blade_24.dat|
|                                   |                     (12605.9 MB/s)|
|Paraview                           |volume_flow_databladeVALIDATION_Blade_24.vtu|
|                                   |                     (995.952 MB/s)|
|Paraview surface                   |surface_flowdatabladeVALIDATION_Blade_24.vtu|
|                                   |                      (82.558 MB/s)|
|SU2 ASCII restart                  |restart_flow_databladeVALIDATION_Blade_24.csv|
|                                   |                     (21.6606 MB/s)|
|CSV file                           |surface_flowdatabladeVALIDATION_Blade_24.csv|
|                                   |                     (21.6332 MB/s)|
+-----------------------------------------------------------------------+
+--------------------------------------+
|  Inner_Iter|    Cur_Time|    rms[Rho]|
+--------------------------------------+
|        3360|  0.0000e+00|   -6.716780|
|        3370|  0.0000e+00|   -6.698190|
|        3380|  0.0000e+00|   -6.719449|
|        3390|  0.0000e+00|   -6.733039|
|        3400|  0.0000e+00|   -6.729354|
+-----------------------------------------------------------------------+
|        File Writing Summary       |              Filename             |
+-----------------------------------------------------------------------+
|SU2 binary restart                 |restart_flow_databladeVALIDATION_Blade_24.dat|
|                                   |                     (10683.4 MB/s)|
|Paraview                           |volume_flow_databladeVALIDATION_Blade_24.vtu|
|                                   |                     (1057.26 MB/s)|
|Paraview surface                   |surface_flowdatabladeVALIDATION_Blade_24.vtu|
|                                   |                      (92.947 MB/s)|
|SU2 ASCII restart                  |restart_flow_databladeVALIDATION_Blade_24.csv|
|                                   |                      (21.494 MB/s)|
|CSV file                           |surface_flowdatabladeVALIDATION_Blade_24.csv|
|                                   |                     (19.3058 MB/s)|
+-----------------------------------------------------------------------+
+--------------------------------------+
|  Inner_Iter|    Cur_Time|    rms[Rho]|
+--------------------------------------+
|        3410|  0.0000e+00|   -6.701329|
|        3420|  0.0000e+00|   -6.703174|
|        3430|  0.0000e+00|   -6.711263|
|        3440|  0.0000e+00|   -6.724289|
|        3450|  0.0000e+00|   -6.767925|
+-----------------------------------------------------------------------+
|        File Writing Summary       |              Filename             |
+-----------------------------------------------------------------------+
|SU2 binary restart                 |restart_flow_databladeVALIDATION_Blade_24.dat|
|                                   |                     (9351.86 MB/s)|
|Paraview                           |volume_flow_databladeVALIDATION_Blade_24.vtu|
|                                   |                     (986.891 MB/s)|
|Paraview surface                   |surface_flowdatabladeVALIDATION_Blade_24.vtu|
|                                   |                     (89.2581 MB/s)|
|SU2 ASCII restart                  |restart_flow_databladeVALIDATION_Blade_24.csv|
|                                   |                     (21.5795 MB/s)|
|CSV file                           |surface_flowdatabladeVALIDATION_Blade_24.csv|
|                                   |                     (20.3588 MB/s)|
+-----------------------------------------------------------------------+
+--------------------------------------+
|  Inner_Iter|    Cur_Time|    rms[Rho]|
+--------------------------------------+
|        3460|  0.0000e+00|   -6.779753|
|        3470|  0.0000e+00|   -6.777100|
|        3480|  0.0000e+00|   -6.766933|
|        3490|  0.0000e+00|   -6.775366|
|        3500|  0.0000e+00|   -6.794725|
+-----------------------------------------------------------------------+
|        File Writing Summary       |              Filename             |
+-----------------------------------------------------------------------+
|SU2 binary restart                 |restart_flow_databladeVALIDATION_Blade_24.dat|
|                                   |                     (10799.2 MB/s)|
|Paraview                           |volume_flow_databladeVALIDATION_Blade_24.vtu|
|                                   |                     (991.199 MB/s)|
|Paraview surface                   |surface_flowdatabladeVALIDATION_Blade_24.vtu|
|                                   |                     (81.9853 MB/s)|
|SU2 ASCII restart                  |restart_flow_databladeVALIDATION_Blade_24.csv|
|                                   |                     (21.6602 MB/s)|
|CSV file                           |surface_flowdatabladeVALIDATION_Blade_24.csv|
|                                   |                     (20.0774 MB/s)|
+-----------------------------------------------------------------------+
+--------------------------------------+
|  Inner_Iter|    Cur_Time|    rms[Rho]|
+--------------------------------------+
|        3510|  0.0000e+00|   -6.801506|
|        3520|  0.0000e+00|   -6.766665|
|        3530|  0.0000e+00|   -6.777441|
|        3540|  0.0000e+00|   -6.786734|
|        3550|  0.0000e+00|   -6.831559|
+-----------------------------------------------------------------------+
|        File Writing Summary       |              Filename             |
+-----------------------------------------------------------------------+
|SU2 binary restart                 |restart_flow_databladeVALIDATION_Blade_24.dat|
|                                   |                     (13731.6 MB/s)|
|Paraview                           |volume_flow_databladeVALIDATION_Blade_24.vtu|
|                                   |                     (935.415 MB/s)|
|Paraview surface                   |surface_flowdatabladeVALIDATION_Blade_24.vtu|
|                                   |                     (76.9554 MB/s)|
|SU2 ASCII restart                  |restart_flow_databladeVALIDATION_Blade_24.csv|
|                                   |                     (21.4929 MB/s)|
|CSV file                           |surface_flowdatabladeVALIDATION_Blade_24.csv|
|                                   |                     (20.1969 MB/s)|
+-----------------------------------------------------------------------+
+--------------------------------------+
|  Inner_Iter|    Cur_Time|    rms[Rho]|
+--------------------------------------+
|        3560|  0.0000e+00|   -6.830413|
|        3570|  0.0000e+00|   -6.822196|
|        3580|  0.0000e+00|   -6.860723|
|        3590|  0.0000e+00|   -6.871364|
|        3600|  0.0000e+00|   -6.860949|
+-----------------------------------------------------------------------+
|        File Writing Summary       |              Filename             |
+-----------------------------------------------------------------------+
|SU2 binary restart                 |restart_flow_databladeVALIDATION_Blade_24.dat|
|                                   |                     (5802.96 MB/s)|
|Paraview                           |volume_flow_databladeVALIDATION_Blade_24.vtu|
|                                   |                     (698.687 MB/s)|
|Paraview surface                   |surface_flowdatabladeVALIDATION_Blade_24.vtu|
|                                   |                     (88.8534 MB/s)|
|SU2 ASCII restart                  |restart_flow_databladeVALIDATION_Blade_24.csv|
|                                   |                      (21.629 MB/s)|
|CSV file                           |surface_flowdatabladeVALIDATION_Blade_24.csv|
|                                   |                     (19.5562 MB/s)|
+-----------------------------------------------------------------------+
+--------------------------------------+
|  Inner_Iter|    Cur_Time|    rms[Rho]|
+--------------------------------------+
|        3610|  0.0000e+00|   -6.866280|
|        3620|  0.0000e+00|   -6.855898|
|        3630|  0.0000e+00|   -6.852877|
|        3640|  0.0000e+00|   -6.896213|
|        3650|  0.0000e+00|   -6.896422|
+-----------------------------------------------------------------------+
|        File Writing Summary       |              Filename             |
+-----------------------------------------------------------------------+
|SU2 binary restart                 |restart_flow_databladeVALIDATION_Blade_24.dat|
|                                   |                       (12498 MB/s)|
|Paraview                           |volume_flow_databladeVALIDATION_Blade_24.vtu|
|                                   |                     (705.487 MB/s)|
|Paraview surface                   |surface_flowdatabladeVALIDATION_Blade_24.vtu|
|                                   |                     (7.52286 MB/s)|
|SU2 ASCII restart                  |restart_flow_databladeVALIDATION_Blade_24.csv|
|                                   |                     (21.2995 MB/s)|
|CSV file                           |surface_flowdatabladeVALIDATION_Blade_24.csv|
|                                   |                     (21.9495 MB/s)|
+-----------------------------------------------------------------------+
+--------------------------------------+
|  Inner_Iter|    Cur_Time|    rms[Rho]|
+--------------------------------------+
|        3660|  0.0000e+00|   -6.870775|
|        3670|  0.0000e+00|   -6.878738|
|        3680|  0.0000e+00|   -6.915404|
|        3690|  0.0000e+00|   -6.918690|
|        3700|  0.0000e+00|   -6.886310|
+-----------------------------------------------------------------------+
|        File Writing Summary       |              Filename             |
+-----------------------------------------------------------------------+
|SU2 binary restart                 |restart_flow_databladeVALIDATION_Blade_24.dat|
|                                   |                     (13083.4 MB/s)|
|Paraview                           |volume_flow_databladeVALIDATION_Blade_24.vtu|
|                                   |                     (657.615 MB/s)|
|Paraview surface                   |surface_flowdatabladeVALIDATION_Blade_24.vtu|
|                                   |                     (38.1266 MB/s)|
|SU2 ASCII restart                  |restart_flow_databladeVALIDATION_Blade_24.csv|
|                                   |                     (20.0946 MB/s)|
|CSV file                           |surface_flowdatabladeVALIDATION_Blade_24.csv|
|                                   |                     (22.0788 MB/s)|
+-----------------------------------------------------------------------+
+--------------------------------------+
|  Inner_Iter|    Cur_Time|    rms[Rho]|
+--------------------------------------+
|        3710|  0.0000e+00|   -6.927573|
|        3720|  0.0000e+00|   -6.909553|
|        3730|  0.0000e+00|   -6.911944|
|        3740|  0.0000e+00|   -6.894320|
|        3750|  0.0000e+00|   -6.940755|
+-----------------------------------------------------------------------+
|        File Writing Summary       |              Filename             |
+-----------------------------------------------------------------------+
|SU2 binary restart                 |restart_flow_databladeVALIDATION_Blade_24.dat|
|                                   |                     (12029.8 MB/s)|
|Paraview                           |volume_flow_databladeVALIDATION_Blade_24.vtu|
|                                   |                     (828.438 MB/s)|
|Paraview surface                   |surface_flowdatabladeVALIDATION_Blade_24.vtu|
|                                   |                     (39.9149 MB/s)|
|SU2 ASCII restart                  |restart_flow_databladeVALIDATION_Blade_24.csv|
|                                   |                     (20.8306 MB/s)|
|CSV file                           |surface_flowdatabladeVALIDATION_Blade_24.csv|
|                                   |                     (21.7425 MB/s)|
+-----------------------------------------------------------------------+
+--------------------------------------+
|  Inner_Iter|    Cur_Time|    rms[Rho]|
+--------------------------------------+
|        3760|  0.0000e+00|   -6.951685|
|        3770|  0.0000e+00|   -6.935488|
|        3780|  0.0000e+00|   -6.913036|
|        3790|  0.0000e+00|   -6.978381|
|        3800|  0.0000e+00|   -6.995660|
+-----------------------------------------------------------------------+
|        File Writing Summary       |              Filename             |
+-----------------------------------------------------------------------+
|SU2 binary restart                 |restart_flow_databladeVALIDATION_Blade_24.dat|
|                                   |                     (12544.6 MB/s)|
|Paraview                           |volume_flow_databladeVALIDATION_Blade_24.vtu|
|                                   |                     (905.284 MB/s)|
|Paraview surface                   |surface_flowdatabladeVALIDATION_Blade_24.vtu|
|                                   |                     (91.1823 MB/s)|
|SU2 ASCII restart                  |restart_flow_databladeVALIDATION_Blade_24.csv|
|                                   |                     (20.9443 MB/s)|
|CSV file                           |surface_flowdatabladeVALIDATION_Blade_24.csv|
|                                   |                     (20.0506 MB/s)|
+-----------------------------------------------------------------------+
+--------------------------------------+
|  Inner_Iter|    Cur_Time|    rms[Rho]|
+--------------------------------------+
|        3801|  0.0000e+00|   -7.000687|

----------------------------- Solver Exit -------------------------------
All convergence criteria satisfied.
+-----------------------------------------------------------------------+
|      Convergence Field     |     Value    |   Criterion  |  Converged |
+-----------------------------------------------------------------------+
|                    rms[Rho]|      -7.00069|          < -7|         Yes|
+-----------------------------------------------------------------------+
-------------------------------------------------------------------------
+-----------------------------------------------------------------------+
|        File Writing Summary       |              Filename             |
+-----------------------------------------------------------------------+
|SU2 binary restart                 |restart_flow_databladeVALIDATION_Blade_24.dat|
|                                   |                     (10796.6 MB/s)|
|Paraview                           |volume_flow_databladeVALIDATION_Blade_24.vtu|
|                                   |                     (1083.84 MB/s)|
|Paraview surface                   |surface_flowdatabladeVALIDATION_Blade_24.vtu|
|                                   |                     (105.071 MB/s)|
|SU2 ASCII restart                  |restart_flow_databladeVALIDATION_Blade_24.csv|
|                                   |                     (21.1353 MB/s)|
|CSV file                           |surface_flowdatabladeVALIDATION_Blade_24.csv|
|                                   |                     (21.6691 MB/s)|
+-----------------------------------------------------------------------+

--------------------------- Finalizing Solver ---------------------------
Deleted CNumerics container.
Deleted CIntegration container.
Deleted CSolver container.
Deleted CIteration container.
Deleted CInterface container.
Deleted CGeometry container.
Deleted CFreeFormDefBox class.
Deleted CSurfaceMovement class.
Deleted CVolumetricMovement class.
Deleted CConfig container.
Deleted nInst container.
Deleted COutput class.
-------------------------------------------------------------------------


-------------------------- Performance Summary --------------------------
Simulation totals:
   Wall-clock time (hrs):    0.138047 |            Core-hrs:     1.65656
                   Cores:          12 |          DOFs/point:           5
             Points/core:     5621.08 |   Ghost points/core:     170.333
 Ghost/Owned Point Ratio:   0.0303026 | 

Preprocessing phase:
       Preproc. Time (s):    0.500913 |   Preproc. Time (%):    0.100794

Compute phase:
        Compute Time (s):     493.909 |    Compute Time (%):     99.3843
         Iteration count:        3802 |         Avg. s/iter:    0.129908
     Core-s/iter/Mpoints:     22.4311 |           Mpoints/s:    0.534972

Output phase:
         Output Time (s):     2.55913 |     Output Time (%):    0.514947
            Output count:           1 |       Avg. s/output:     2.55913
 Restart Aggr. BW (MB/s):      815943 |           MB/s/core:     67995.2
-------------------------------------------------------------------------


------------------------- Exit Success (SU2_CFD) ------------------------

