
-------------------------------------------------------------------------
|    ___ _   _ ___                                                      |
|   / __| | | |_  )   Release 8.0.1 "Harrier"                           |
|   \__ \ |_| |/ /                                                      |
|   |___/\___//___|   Suite (Computational Fluid Dynamics Code)         |
|                                                                       |
-------------------------------------------------------------------------
| SU2 Project Website: https://su2code.github.io                        |
|                                                                       |
| The SU2 Project is maintained by the SU2 Foundation                   |
| (http://su2foundation.org)                                            |
-------------------------------------------------------------------------
| Copyright 2012-2024, SU2 Contributors                                 |
|                                                                       |
| SU2 is free software; you can redistribute it and/or                  |
| modify it under the terms of the GNU Lesser General Public            |
| License as published by the Free Software Foundation; either          |
| version 2.1 of the License, or (at your option) any later version.    |
|                                                                       |
| SU2 is distributed in the hope that it will be useful,                |
| but WITHOUT ANY WARRANTY; without even the implied warranty of        |
| MERCHANTABILITY or FITNESS FOR A PARTICULAR PURPOSE. See the GNU      |
| Lesser General Public License for more details.                       |
|                                                                       |
| You should have received a copy of the GNU Lesser General Public      |
| License along with SU2. If not, see <http://www.gnu.org/licenses/>.   |
-------------------------------------------------------------------------

Parsing config file for zone 0

----------------- Physical Case Definition ( Zone 0 ) -------------------
Compressible RANS equations.
Turbulence model: Spalart-Allmaras-noft2-BCM
Hybrid RANS/LES: No Hybrid RANS/LES
Mach number: 0.667.
Angle of attack (AoA): -37 deg, and angle of sideslip (AoS): 0 deg.
Reynolds number: 600000. Reference length 1.0018.
No restart solution, use the values at infinity (freestream).
Dimensional simulation.
The reference area will be computed using y(2D) or z(3D) projection.
The semi-span will be computed using the max y(3D) value.
The reference length is 1.0018 m.
Reference origin for moment evaluation is (0, 0, 0).
Surface(s) where the force coefficients are evaluated: blade1.

Surface(s) plotted in the output file: blade1.
Surface(s) to be analyzed in detail: inlet, outlet, blade1.
Input mesh file name: cascade2D_databladeVALIDATION_Blade_23.su2

--------------- Space Numerical Integration ( Zone 0 ) ------------------
Jameson-Schmidt-Turkel scheme (2nd order in space) for the flow inviscid terms.
JST viscous coefficients (2nd & 4th): 0.5, 0.02.
The method includes a grid stretching correction (p = 0.3).
Scalar upwind solver for the turbulence model.
First order integration in space.
Average of gradients with correction (viscous flow terms).
Average of gradients with correction (viscous turbulence terms).
Gradient for upwind reconstruction: inverse-distance weighted Least-Squares.
Gradient for viscous and source terms: inverse-distance weighted Least-Squares.

--------------- Time Numerical Integration  ( Zone 0 ) ------------------
Local time stepping (steady state simulation).
Euler implicit method for the flow equations.
FGMRES is used for solving the linear system.
Using a LU-SGS preconditioning.
Convergence criteria of the linear solver: 0.0001.
Max number of linear iterations: 10.
V Multigrid Cycle, with 3 multigrid levels.
Damping factor for the residual restriction: 0.75.
Damping factor for the correction prolongation: 0.75.
CFL adaptation. Factor down: 0.1, factor up: 1.2,
                lower limit: 0.1, upper limit: 100,
                acceptable linear residual: 0.001.
+-------------------------------------------+
|  MG Level| Presmooth|PostSmooth|CorrectSmo|
+-------------------------------------------+
|         0|         1|         0|         1|
|         1|         2|         2|         2|
|         2|         3|         3|         3|
|         3|         3|         0|         0|
+-------------------------------------------+
Courant-Friedrichs-Lewy number:       12
Euler implicit time integration for the turbulence model.

------------------ Convergence Criteria  ( Zone 0 ) ---------------------
Maximum number of solver subiterations: 7000.
Begin convergence monitoring at iteration 500.
Residual minimum value: 1e-7.
Cauchy series min. value: 1e-10.
Number of Cauchy elements: 100.
Begin windowed time average at iteration 0.

-------------------- Output Information ( Zone 0 ) ----------------------
File writing frequency: 
+------------------------------------+
|                     File| Frequency|
+------------------------------------+
|                  RESTART|        50|
|                 PARAVIEW|        50|
|         SURFACE_PARAVIEW|        50|
|                      CSV|        50|
|              SURFACE_CSV|        50|
+------------------------------------+
Writing the convergence history file every 1 inner iterations.
Writing the screen convergence history every 10 inner iterations.
The tabular file format is CSV (.csv).
Convergence history file name: history_databladeVALIDATION_Blade_23.
Forces breakdown file name: forces_breakdown.dat.
Surface file name: surface_flowdatabladeVALIDATION_Blade_23.
Volume file name: volume_flow_databladeVALIDATION_Blade_23.
Restart file name: restart_flow_databladeVALIDATION_Blade_23.dat.

------------- Config File Boundary Information ( Zone 0 ) ---------------
+-----------------------------------------------------------------------+
|                        Marker Type|                        Marker Name|
+-----------------------------------------------------------------------+
|                  Periodic boundary|               symmetricWallsBOTTOM|
|                                   |                  symmetricWallsTOP|
+-----------------------------------------------------------------------+
|                     Inlet boundary|                              inlet|
+-----------------------------------------------------------------------+
|                    Outlet boundary|                             outlet|
+-----------------------------------------------------------------------+
|                     Heat flux wall|                             blade1|
|                                   |                             blade2|
+-----------------------------------------------------------------------+

-------------------- Output Preprocessing ( Zone 0 ) --------------------
  Info: Ignoring the following screen output fields:
  LINSOL_ITER_TRANS, LINSOL_RESIDUAL_TRANS
Screen output fields: INNER_ITER, CUR_TIME, RMS_DENSITY
  Info: Ignoring the following history output groups:
  RMS_TKE, RMS_DISSIPATION
History output group(s): INNER_ITER, WALL_TIME, RMS_DENSITY, RMS_MOMENTUM-X, RMS_ENERGY, LINSOL, CFL_NUMBER, FLOW_COEFF_SURF, AERO_COEFF_SURF
Convergence field(s): RMS_DENSITY
Warning: No (valid) fields chosen for time convergence monitoring. Time convergence monitoring inactive.
Volume output fields: COORDINATES, SOLUTION, PRIMITIVE, RESIDUAL, TIMESTEP, MESH_QUALITY, VORTEX_IDENTIFICATION

------------------- Geometry Preprocessing ( Zone 0 ) -------------------
Two dimensional problem.
58197 grid points before partitioning.
86196 volume elements before partitioning.
5 surface markers.
21 boundary elements in index 0 (Marker = inlet).
253 boundary elements in index 1 (Marker = symmetricWallsBOTTOM).
253 boundary elements in index 2 (Marker = symmetricWallsTOP).
21 boundary elements in index 3 (Marker = outlet).
1186 boundary elements in index 4 (Marker = blade1).
Executing the partitioning functions.
Building the graph adjacency structure.
Calling ParMETIS... graph partitioning complete (1461 edge cuts).
Distributing ParMETIS coloring.
Rebalancing vertices.
Rebalancing volume element connectivity.
Rebalancing markers and surface elements.
60033 vertices including ghost points. 
87646 interior elements including halo cells. 
58820 triangles.
28826 quadrilaterals.
Establishing MPI communication patterns.
Setting point connectivity.
Renumbering points (Reverse Cuthill McKee Ordering).
Recomputing point connectivity.
Setting element connectivity.
Checking the numerical grid orientation.
All volume elements are correctly orientend.
There has been a re-orientation of 879 LINE surface elements.
Identifying edges and vertices.
Setting the control volume structure.
Area of the computational grid: 2.712.
Searching for the closest normal neighbors to the surfaces.
Storing a mapping from global to local point index.
Compute the surface curvature.
Max K: 180.502. Mean K: 5.44615. Standard deviation K: 18.7375.
Checking for periodicity.
WARNING: Periodicity has been detected. Disabling multigrid. 
Computing mesh quality statistics for the dual control volumes.
+--------------------------------------------------------------+
|           Mesh Quality Metric|        Minimum|        Maximum|
+--------------------------------------------------------------+
|    Orthogonality Angle (deg.)|        64.8832|             90|
|     CV Face Area Aspect Ratio|        1.00026|         225.14|
|           CV Sub-Volume Ratio|              1|        37.6452|
+--------------------------------------------------------------+
Finding max control volume width.
Communicating number of neighbors.
Reference length = 1.01363 m.
Wetted area = 2.5394 m.
Area projection in the x-plane = 0.643546 m, y-plane = 1.01363 m.
Max. coordinate in the x-direction = 1.0099 m, y-direction = 0.389142 m.
Min. coordinate in the x-direction = -0.00373878 m, y-direction = -0.226813 m.
Matching the periodic boundary points for marker pair 1.
 Matched 508 points with a max distance of: 6.01298e-14.
Computing wall distances.

-------------------- Solver Preprocessing ( Zone 0 ) --------------------
Viscous flow: Computing pressure using the ideal gas law
based on the free-stream temperature and a density computed
from the Reynolds number.
Force coefficients computed using free-stream values.

-- Models:
+------------------------------------------------------------------------------+
|          Viscosity Model|        Conductivity Model|              Fluid Model|
+------------------------------------------------------------------------------+
|               SUTHERLAND|          CONSTANT_PRANDTL|                IDEAL_GAS|
+------------------------------------------------------------------------------+
-- Fluid properties:
+------------------------------------------------------------------------------+
|                  Name|    Dim. value|    Ref. value|      Unit|Non-dim. value|
+------------------------------------------------------------------------------+
|        Ref. Viscosity|     1.716e-05|             1|   N.s/m^2|     1.716e-05|
|      Sutherland Temp.|        273.15|             1|         K|        273.15|
|     Sutherland Const.|         110.4|             1|         K|         110.4|
+------------------------------------------------------------------------------+
|        Prandtl (Lam.)|             -|             -|         -|          0.72|
|       Prandtl (Turb.)|             -|             -|         -|           0.9|
+------------------------------------------------------------------------------+
|          Gas Constant|       287.058|             1|  N.m/kg.K|       287.058|
|      Spec. Heat Ratio|             -|             -|         -|           1.4|
+------------------------------------------------------------------------------+
-- Initial and free-stream conditions:
+------------------------------------------------------------------------------+
|                  Name|    Dim. value|    Ref. value|      Unit|Non-dim. value|
+------------------------------------------------------------------------------+
|       Static Pressure|       4110.91|             1|        Pa|       4110.91|
|               Density|     0.0477361|             1|    kg/m^3|     0.0477361|
|           Temperature|           300|             1|         K|           300|
|          Total Energy|        242112|             1|   m^2/s^2|        242112|
|            Velocity-X|       184.963|             1|       m/s|       184.963|
|            Velocity-Y|      -139.379|             1|       m/s|      -139.379|
|    Velocity Magnitude|       231.598|             1|       m/s|       231.598|
+------------------------------------------------------------------------------+
|             Viscosity|   1.84592e-05|             1|   N.s/m^2|   1.84592e-05|
|          Conductivity|             -|             1|   W/m^2.K|             -|
|     Turb. Kin. Energy|       98.5594|             1|   m^2/s^2|       98.5594|
|     Spec. Dissipation|   2.54879e+06|             1|       1/s|   2.54879e+06|
+------------------------------------------------------------------------------+
|           Mach Number|             -|             -|         -|         0.667|
|       Reynolds Number|             -|             -|         -|        600000|
+------------------------------------------------------------------------------+
Initialize Jacobian structure (Navier-Stokes). MG level: 0.
Initialize Jacobian structure (SA model).

------------------- Numerics Preprocessing ( Zone 0 ) -------------------

----------------- Integration Preprocessing ( Zone 0 ) ------------------

------------------- Iteration Preprocessing ( Zone 0 ) ------------------
Euler/Navier-Stokes/RANS fluid iteration.

------------------------------ Begin Solver -----------------------------

Simulation Run using the Single-zone Driver
WARNING: SU2 was not compiled for an AVX-capable architecture. Performance could be better,
         see https://su2code.github.io/docs_v7/Build-SU2-Linux-MacOS/#compiler-optimizations
+--------------------------------------+
|  Inner_Iter|    Cur_Time|    rms[Rho]|
+--------------------------------------+
|           0|  0.0000e+00|   -2.546959|
|          10|  0.0000e+00|   -3.182888|
|          20|  0.0000e+00|   -3.004519|
|          30|  0.0000e+00|   -3.006267|
|          40|  0.0000e+00|   -2.975629|
|          50|  0.0000e+00|   -2.838343|
+-----------------------------------------------------------------------+
|        File Writing Summary       |              Filename             |
+-----------------------------------------------------------------------+
|SU2 binary restart                 |restart_flow_databladeVALIDATION_Blade_23.dat|
|                                   |                     (11690.2 MB/s)|
|Paraview                           |volume_flow_databladeVALIDATION_Blade_23.vtu|
|                                   |                     (1049.43 MB/s)|
|Paraview surface                   |surface_flowdatabladeVALIDATION_Blade_23.vtu|
|                                   |                     (93.2851 MB/s)|
|SU2 ASCII restart                  |restart_flow_databladeVALIDATION_Blade_23.csv|
|                                   |                     (21.8732 MB/s)|
|CSV file                           |surface_flowdatabladeVALIDATION_Blade_23.csv|
|                                   |                      (22.262 MB/s)|
+-----------------------------------------------------------------------+
+--------------------------------------+
|  Inner_Iter|    Cur_Time|    rms[Rho]|
+--------------------------------------+
|          60|  0.0000e+00|   -3.105403|
|          70|  0.0000e+00|   -3.176068|
|          80|  0.0000e+00|   -3.172019|
|          90|  0.0000e+00|   -3.033736|
|         100|  0.0000e+00|   -2.961020|
+-----------------------------------------------------------------------+
|        File Writing Summary       |              Filename             |
+-----------------------------------------------------------------------+
|SU2 binary restart                 |restart_flow_databladeVALIDATION_Blade_23.dat|
|                                   |                     (7315.56 MB/s)|
|Paraview                           |volume_flow_databladeVALIDATION_Blade_23.vtu|
|                                   |                     (903.778 MB/s)|
|Paraview surface                   |surface_flowdatabladeVALIDATION_Blade_23.vtu|
|                                   |                     (91.2651 MB/s)|
|SU2 ASCII restart                  |restart_flow_databladeVALIDATION_Blade_23.csv|
|                                   |                       (21.39 MB/s)|
|CSV file                           |surface_flowdatabladeVALIDATION_Blade_23.csv|
|                                   |                     (21.9938 MB/s)|
+-----------------------------------------------------------------------+
+--------------------------------------+
|  Inner_Iter|    Cur_Time|    rms[Rho]|
+--------------------------------------+
|         110|  0.0000e+00|   -3.032181|
|         120|  0.0000e+00|   -3.027265|
|         130|  0.0000e+00|   -3.015051|
|         140|  0.0000e+00|   -3.102263|
|         150|  0.0000e+00|   -3.138202|
+-----------------------------------------------------------------------+
|        File Writing Summary       |              Filename             |
+-----------------------------------------------------------------------+
|SU2 binary restart                 |restart_flow_databladeVALIDATION_Blade_23.dat|
|                                   |                     (12596.1 MB/s)|
|Paraview                           |volume_flow_databladeVALIDATION_Blade_23.vtu|
|                                   |                     (1011.53 MB/s)|
|Paraview surface                   |surface_flowdatabladeVALIDATION_Blade_23.vtu|
|                                   |                     (117.689 MB/s)|
|SU2 ASCII restart                  |restart_flow_databladeVALIDATION_Blade_23.csv|
|                                   |                     (22.1263 MB/s)|
|CSV file                           |surface_flowdatabladeVALIDATION_Blade_23.csv|
|                                   |                     (22.3761 MB/s)|
+-----------------------------------------------------------------------+
+--------------------------------------+
|  Inner_Iter|    Cur_Time|    rms[Rho]|
+--------------------------------------+
|         160|  0.0000e+00|   -3.196777|
|         170|  0.0000e+00|   -3.209562|
|         180|  0.0000e+00|   -3.268351|
|         190|  0.0000e+00|   -3.236843|
|         200|  0.0000e+00|   -3.223802|
+-----------------------------------------------------------------------+
|        File Writing Summary       |              Filename             |
+-----------------------------------------------------------------------+
|SU2 binary restart                 |restart_flow_databladeVALIDATION_Blade_23.dat|
|                                   |                     (13279.2 MB/s)|
|Paraview                           |volume_flow_databladeVALIDATION_Blade_23.vtu|
|                                   |                     (1047.77 MB/s)|
|Paraview surface                   |surface_flowdatabladeVALIDATION_Blade_23.vtu|
|                                   |                     (101.595 MB/s)|
|SU2 ASCII restart                  |restart_flow_databladeVALIDATION_Blade_23.csv|
|                                   |                     (21.9081 MB/s)|
|CSV file                           |surface_flowdatabladeVALIDATION_Blade_23.csv|
|                                   |                     (21.1294 MB/s)|
+-----------------------------------------------------------------------+
+--------------------------------------+
|  Inner_Iter|    Cur_Time|    rms[Rho]|
+--------------------------------------+
|         210|  0.0000e+00|   -3.236048|
|         220|  0.0000e+00|   -3.358811|
|         230|  0.0000e+00|   -3.290732|
|         240|  0.0000e+00|   -3.178076|
|         250|  0.0000e+00|   -3.225308|
+-----------------------------------------------------------------------+
|        File Writing Summary       |              Filename             |
+-----------------------------------------------------------------------+
|SU2 binary restart                 |restart_flow_databladeVALIDATION_Blade_23.dat|
|                                   |                     (12998.6 MB/s)|
|Paraview                           |volume_flow_databladeVALIDATION_Blade_23.vtu|
|                                   |                     (985.486 MB/s)|
|Paraview surface                   |surface_flowdatabladeVALIDATION_Blade_23.vtu|
|                                   |                     (100.532 MB/s)|
|SU2 ASCII restart                  |restart_flow_databladeVALIDATION_Blade_23.csv|
|                                   |                     (21.9725 MB/s)|
|CSV file                           |surface_flowdatabladeVALIDATION_Blade_23.csv|
|                                   |                     (21.2641 MB/s)|
+-----------------------------------------------------------------------+
+--------------------------------------+
|  Inner_Iter|    Cur_Time|    rms[Rho]|
+--------------------------------------+
|         260|  0.0000e+00|   -3.208193|
|         270|  0.0000e+00|   -3.348941|
|         280|  0.0000e+00|   -3.475361|
|         290|  0.0000e+00|   -3.611494|
|         300|  0.0000e+00|   -3.639104|
+-----------------------------------------------------------------------+
|        File Writing Summary       |              Filename             |
+-----------------------------------------------------------------------+
|SU2 binary restart                 |restart_flow_databladeVALIDATION_Blade_23.dat|
|                                   |                     (14515.1 MB/s)|
|Paraview                           |volume_flow_databladeVALIDATION_Blade_23.vtu|
|                                   |                     (1026.57 MB/s)|
|Paraview surface                   |surface_flowdatabladeVALIDATION_Blade_23.vtu|
|                                   |                     (99.2736 MB/s)|
|SU2 ASCII restart                  |restart_flow_databladeVALIDATION_Blade_23.csv|
|                                   |                     (21.8495 MB/s)|
|CSV file                           |surface_flowdatabladeVALIDATION_Blade_23.csv|
|                                   |                     (20.0843 MB/s)|
+-----------------------------------------------------------------------+
+--------------------------------------+
|  Inner_Iter|    Cur_Time|    rms[Rho]|
+--------------------------------------+
|         310|  0.0000e+00|   -3.665704|
|         320|  0.0000e+00|   -3.683622|
|         330|  0.0000e+00|   -3.648318|
|         340|  0.0000e+00|   -3.641646|
|         350|  0.0000e+00|   -3.662561|
+-----------------------------------------------------------------------+
|        File Writing Summary       |              Filename             |
+-----------------------------------------------------------------------+
|SU2 binary restart                 |restart_flow_databladeVALIDATION_Blade_23.dat|
|                                   |                     (12877.7 MB/s)|
|Paraview                           |volume_flow_databladeVALIDATION_Blade_23.vtu|
|                                   |                      (1072.5 MB/s)|
|Paraview surface                   |surface_flowdatabladeVALIDATION_Blade_23.vtu|
|                                   |                     (101.442 MB/s)|
|SU2 ASCII restart                  |restart_flow_databladeVALIDATION_Blade_23.csv|
|                                   |                     (21.6522 MB/s)|
|CSV file                           |surface_flowdatabladeVALIDATION_Blade_23.csv|
|                                   |                     (21.9739 MB/s)|
+-----------------------------------------------------------------------+
+--------------------------------------+
|  Inner_Iter|    Cur_Time|    rms[Rho]|
+--------------------------------------+
|         360|  0.0000e+00|   -3.642444|
|         370|  0.0000e+00|   -3.532850|
|         380|  0.0000e+00|   -3.554817|
|         390|  0.0000e+00|   -3.556424|
|         400|  0.0000e+00|   -3.553340|
+-----------------------------------------------------------------------+
|        File Writing Summary       |              Filename             |
+-----------------------------------------------------------------------+
|SU2 binary restart                 |restart_flow_databladeVALIDATION_Blade_23.dat|
|                                   |                     (12428.1 MB/s)|
|Paraview                           |volume_flow_databladeVALIDATION_Blade_23.vtu|
|                                   |                     (924.844 MB/s)|
|Paraview surface                   |surface_flowdatabladeVALIDATION_Blade_23.vtu|
|                                   |                     (100.928 MB/s)|
|SU2 ASCII restart                  |restart_flow_databladeVALIDATION_Blade_23.csv|
|                                   |                     (21.5068 MB/s)|
|CSV file                           |surface_flowdatabladeVALIDATION_Blade_23.csv|
|                                   |                     (19.9573 MB/s)|
+-----------------------------------------------------------------------+
+--------------------------------------+
|  Inner_Iter|    Cur_Time|    rms[Rho]|
+--------------------------------------+
|         410|  0.0000e+00|   -3.644615|
|         420|  0.0000e+00|   -3.728841|
|         430|  0.0000e+00|   -3.806037|
|         440|  0.0000e+00|   -3.831352|
|         450|  0.0000e+00|   -3.861004|
+-----------------------------------------------------------------------+
|        File Writing Summary       |              Filename             |
+-----------------------------------------------------------------------+
|SU2 binary restart                 |restart_flow_databladeVALIDATION_Blade_23.dat|
|                                   |                     (12125.3 MB/s)|
|Paraview                           |volume_flow_databladeVALIDATION_Blade_23.vtu|
|                                   |                     (1075.06 MB/s)|
|Paraview surface                   |surface_flowdatabladeVALIDATION_Blade_23.vtu|
|                                   |                     (103.988 MB/s)|
|SU2 ASCII restart                  |restart_flow_databladeVALIDATION_Blade_23.csv|
|                                   |                     (21.4675 MB/s)|
|CSV file                           |surface_flowdatabladeVALIDATION_Blade_23.csv|
|                                   |                     (22.1211 MB/s)|
+-----------------------------------------------------------------------+
+--------------------------------------+
|  Inner_Iter|    Cur_Time|    rms[Rho]|
+--------------------------------------+
|         460|  0.0000e+00|   -3.871234|
|         470|  0.0000e+00|   -3.853288|
|         480|  0.0000e+00|   -3.832952|
|         490|  0.0000e+00|   -3.872281|
|         500|  0.0000e+00|   -3.876753|
+-----------------------------------------------------------------------+
|        File Writing Summary       |              Filename             |
+-----------------------------------------------------------------------+
|SU2 binary restart                 |restart_flow_databladeVALIDATION_Blade_23.dat|
|                                   |                     (12499.9 MB/s)|
|Paraview                           |volume_flow_databladeVALIDATION_Blade_23.vtu|
|                                   |                      (1034.7 MB/s)|
|Paraview surface                   |surface_flowdatabladeVALIDATION_Blade_23.vtu|
|                                   |                     (95.1705 MB/s)|
|SU2 ASCII restart                  |restart_flow_databladeVALIDATION_Blade_23.csv|
|                                   |                     (21.6004 MB/s)|
|CSV file                           |surface_flowdatabladeVALIDATION_Blade_23.csv|
|                                   |                     (20.1312 MB/s)|
+-----------------------------------------------------------------------+
+--------------------------------------+
|  Inner_Iter|    Cur_Time|    rms[Rho]|
+--------------------------------------+
|         510|  0.0000e+00|   -3.872118|
|         520|  0.0000e+00|   -3.893843|
|         530|  0.0000e+00|   -3.882836|
|         540|  0.0000e+00|   -3.856431|
|         550|  0.0000e+00|   -3.914773|
+-----------------------------------------------------------------------+
|        File Writing Summary       |              Filename             |
+-----------------------------------------------------------------------+
|SU2 binary restart                 |restart_flow_databladeVALIDATION_Blade_23.dat|
|                                   |                     (12671.9 MB/s)|
|Paraview                           |volume_flow_databladeVALIDATION_Blade_23.vtu|
|                                   |                      (1067.3 MB/s)|
|Paraview surface                   |surface_flowdatabladeVALIDATION_Blade_23.vtu|
|                                   |                     (99.3063 MB/s)|
|SU2 ASCII restart                  |restart_flow_databladeVALIDATION_Blade_23.csv|
|                                   |                     (21.2382 MB/s)|
|CSV file                           |surface_flowdatabladeVALIDATION_Blade_23.csv|
|                                   |                     (21.7384 MB/s)|
+-----------------------------------------------------------------------+
+--------------------------------------+
|  Inner_Iter|    Cur_Time|    rms[Rho]|
+--------------------------------------+
|         560|  0.0000e+00|   -3.949994|
|         570|  0.0000e+00|   -3.930229|
|         580|  0.0000e+00|   -3.945640|
|         590|  0.0000e+00|   -3.993485|
|         600|  0.0000e+00|   -3.982940|
+-----------------------------------------------------------------------+
|        File Writing Summary       |              Filename             |
+-----------------------------------------------------------------------+
|SU2 binary restart                 |restart_flow_databladeVALIDATION_Blade_23.dat|
|                                   |                     (12470.5 MB/s)|
|Paraview                           |volume_flow_databladeVALIDATION_Blade_23.vtu|
|                                   |                      (1058.4 MB/s)|
|Paraview surface                   |surface_flowdatabladeVALIDATION_Blade_23.vtu|
|                                   |                      (132.08 MB/s)|
|SU2 ASCII restart                  |restart_flow_databladeVALIDATION_Blade_23.csv|
|                                   |                     (21.2611 MB/s)|
|CSV file                           |surface_flowdatabladeVALIDATION_Blade_23.csv|
|                                   |                     (21.7823 MB/s)|
+-----------------------------------------------------------------------+
+--------------------------------------+
|  Inner_Iter|    Cur_Time|    rms[Rho]|
+--------------------------------------+
|         610|  0.0000e+00|   -4.017599|
|         620|  0.0000e+00|   -4.036506|
|         630|  0.0000e+00|   -4.032238|
|         640|  0.0000e+00|   -4.039131|
|         650|  0.0000e+00|   -4.074272|
+-----------------------------------------------------------------------+
|        File Writing Summary       |              Filename             |
+-----------------------------------------------------------------------+
|SU2 binary restart                 |restart_flow_databladeVALIDATION_Blade_23.dat|
|                                   |                     (12565.2 MB/s)|
|Paraview                           |volume_flow_databladeVALIDATION_Blade_23.vtu|
|                                   |                     (1103.16 MB/s)|
|Paraview surface                   |surface_flowdatabladeVALIDATION_Blade_23.vtu|
|                                   |                     (100.873 MB/s)|
|SU2 ASCII restart                  |restart_flow_databladeVALIDATION_Blade_23.csv|
|                                   |                     (21.4181 MB/s)|
|CSV file                           |surface_flowdatabladeVALIDATION_Blade_23.csv|
|                                   |                     (21.5469 MB/s)|
+-----------------------------------------------------------------------+
+--------------------------------------+
|  Inner_Iter|    Cur_Time|    rms[Rho]|
+--------------------------------------+
|         660|  0.0000e+00|   -4.132116|
|         670|  0.0000e+00|   -4.140464|
|         680|  0.0000e+00|   -4.139747|
|         690|  0.0000e+00|   -4.129153|
|         700|  0.0000e+00|   -4.147444|
+-----------------------------------------------------------------------+
|        File Writing Summary       |              Filename             |
+-----------------------------------------------------------------------+
|SU2 binary restart                 |restart_flow_databladeVALIDATION_Blade_23.dat|
|                                   |                     (12016.3 MB/s)|
|Paraview                           |volume_flow_databladeVALIDATION_Blade_23.vtu|
|                                   |                     (824.598 MB/s)|
|Paraview surface                   |surface_flowdatabladeVALIDATION_Blade_23.vtu|
|                                   |                     (77.8626 MB/s)|
|SU2 ASCII restart                  |restart_flow_databladeVALIDATION_Blade_23.csv|
|                                   |                     (21.5437 MB/s)|
|CSV file                           |surface_flowdatabladeVALIDATION_Blade_23.csv|
|                                   |                     (20.1762 MB/s)|
+-----------------------------------------------------------------------+
+--------------------------------------+
|  Inner_Iter|    Cur_Time|    rms[Rho]|
+--------------------------------------+
|         710|  0.0000e+00|   -4.134000|
|         720|  0.0000e+00|   -4.108905|
|         730|  0.0000e+00|   -4.110880|
|         740|  0.0000e+00|   -4.138504|
|         750|  0.0000e+00|   -4.134385|
+-----------------------------------------------------------------------+
|        File Writing Summary       |              Filename             |
+-----------------------------------------------------------------------+
|SU2 binary restart                 |restart_flow_databladeVALIDATION_Blade_23.dat|
|                                   |                     (12426.1 MB/s)|
|Paraview                           |volume_flow_databladeVALIDATION_Blade_23.vtu|
|                                   |                     (1088.65 MB/s)|
|Paraview surface                   |surface_flowdatabladeVALIDATION_Blade_23.vtu|
|                                   |                     (100.373 MB/s)|
|SU2 ASCII restart                  |restart_flow_databladeVALIDATION_Blade_23.csv|
|                                   |                     (20.6845 MB/s)|
|CSV file                           |surface_flowdatabladeVALIDATION_Blade_23.csv|
|                                   |                      (21.485 MB/s)|
+-----------------------------------------------------------------------+
+--------------------------------------+
|  Inner_Iter|    Cur_Time|    rms[Rho]|
+--------------------------------------+
|         760|  0.0000e+00|   -4.124912|
|         770|  0.0000e+00|   -4.165607|
|         780|  0.0000e+00|   -4.163685|
|         790|  0.0000e+00|   -4.153669|
|         800|  0.0000e+00|   -4.159549|
+-----------------------------------------------------------------------+
|        File Writing Summary       |              Filename             |
+-----------------------------------------------------------------------+
|SU2 binary restart                 |restart_flow_databladeVALIDATION_Blade_23.dat|
|                                   |                     (11967.7 MB/s)|
|Paraview                           |volume_flow_databladeVALIDATION_Blade_23.vtu|
|                                   |                     (1052.53 MB/s)|
|Paraview surface                   |surface_flowdatabladeVALIDATION_Blade_23.vtu|
|                                   |                     (121.356 MB/s)|
|SU2 ASCII restart                  |restart_flow_databladeVALIDATION_Blade_23.csv|
|                                   |                     (20.8866 MB/s)|
|CSV file                           |surface_flowdatabladeVALIDATION_Blade_23.csv|
|                                   |                     (20.8755 MB/s)|
+-----------------------------------------------------------------------+
+--------------------------------------+
|  Inner_Iter|    Cur_Time|    rms[Rho]|
+--------------------------------------+
|         810|  0.0000e+00|   -4.195985|
|         820|  0.0000e+00|   -4.197775|
|         830|  0.0000e+00|   -4.190203|
|         840|  0.0000e+00|   -4.206316|
|         850|  0.0000e+00|   -4.212694|
+-----------------------------------------------------------------------+
|        File Writing Summary       |              Filename             |
+-----------------------------------------------------------------------+
|SU2 binary restart                 |restart_flow_databladeVALIDATION_Blade_23.dat|
|                                   |                     (11814.2 MB/s)|
|Paraview                           |volume_flow_databladeVALIDATION_Blade_23.vtu|
|                                   |                     (1038.48 MB/s)|
|Paraview surface                   |surface_flowdatabladeVALIDATION_Blade_23.vtu|
|                                   |                     (97.6215 MB/s)|
|SU2 ASCII restart                  |restart_flow_databladeVALIDATION_Blade_23.csv|
|                                   |                     (20.9291 MB/s)|
|CSV file                           |surface_flowdatabladeVALIDATION_Blade_23.csv|
|                                   |                     (22.3967 MB/s)|
+-----------------------------------------------------------------------+
+--------------------------------------+
|  Inner_Iter|    Cur_Time|    rms[Rho]|
+--------------------------------------+
|         860|  0.0000e+00|   -4.184948|
|         870|  0.0000e+00|   -4.192540|
|         880|  0.0000e+00|   -4.257765|
|         890|  0.0000e+00|   -4.232731|
|         900|  0.0000e+00|   -4.270674|
+-----------------------------------------------------------------------+
|        File Writing Summary       |              Filename             |
+-----------------------------------------------------------------------+
|SU2 binary restart                 |restart_flow_databladeVALIDATION_Blade_23.dat|
|                                   |                     (11847.8 MB/s)|
|Paraview                           |volume_flow_databladeVALIDATION_Blade_23.vtu|
|                                   |                     (911.543 MB/s)|
|Paraview surface                   |surface_flowdatabladeVALIDATION_Blade_23.vtu|
|                                   |                     (98.6037 MB/s)|
|SU2 ASCII restart                  |restart_flow_databladeVALIDATION_Blade_23.csv|
|                                   |                     (21.0824 MB/s)|
|CSV file                           |surface_flowdatabladeVALIDATION_Blade_23.csv|
|                                   |                      (19.397 MB/s)|
+-----------------------------------------------------------------------+
+--------------------------------------+
|  Inner_Iter|    Cur_Time|    rms[Rho]|
+--------------------------------------+
|         910|  0.0000e+00|   -4.257204|
|         920|  0.0000e+00|   -4.268890|
|         930|  0.0000e+00|   -4.322523|
|         940|  0.0000e+00|   -4.339465|
|         950|  0.0000e+00|   -4.335319|
+-----------------------------------------------------------------------+
|        File Writing Summary       |              Filename             |
+-----------------------------------------------------------------------+
|SU2 binary restart                 |restart_flow_databladeVALIDATION_Blade_23.dat|
|                                   |                     (12464.4 MB/s)|
|Paraview                           |volume_flow_databladeVALIDATION_Blade_23.vtu|
|                                   |                     (991.242 MB/s)|
|Paraview surface                   |surface_flowdatabladeVALIDATION_Blade_23.vtu|
|                                   |                     (93.5493 MB/s)|
|SU2 ASCII restart                  |restart_flow_databladeVALIDATION_Blade_23.csv|
|                                   |                      (20.836 MB/s)|
|CSV file                           |surface_flowdatabladeVALIDATION_Blade_23.csv|
|                                   |                      (18.831 MB/s)|
+-----------------------------------------------------------------------+
+--------------------------------------+
|  Inner_Iter|    Cur_Time|    rms[Rho]|
+--------------------------------------+
|         960|  0.0000e+00|   -4.340363|
|         970|  0.0000e+00|   -4.396793|
|         980|  0.0000e+00|   -4.416813|
|         990|  0.0000e+00|   -4.426123|
|        1000|  0.0000e+00|   -4.454371|
+-----------------------------------------------------------------------+
|        File Writing Summary       |              Filename             |
+-----------------------------------------------------------------------+
|SU2 binary restart                 |restart_flow_databladeVALIDATION_Blade_23.dat|
|                                   |                     (10505.8 MB/s)|
|Paraview                           |volume_flow_databladeVALIDATION_Blade_23.vtu|
|                                   |                     (1049.33 MB/s)|
|Paraview surface                   |surface_flowdatabladeVALIDATION_Blade_23.vtu|
|                                   |                     (102.695 MB/s)|
|SU2 ASCII restart                  |restart_flow_databladeVALIDATION_Blade_23.csv|
|                                   |                     (20.9069 MB/s)|
|CSV file                           |surface_flowdatabladeVALIDATION_Blade_23.csv|
|                                   |                     (20.5682 MB/s)|
+-----------------------------------------------------------------------+
+--------------------------------------+
|  Inner_Iter|    Cur_Time|    rms[Rho]|
+--------------------------------------+
|        1010|  0.0000e+00|   -4.477382|
|        1020|  0.0000e+00|   -4.462119|
|        1030|  0.0000e+00|   -4.482782|
|        1040|  0.0000e+00|   -4.504244|
|        1050|  0.0000e+00|   -4.490860|
+-----------------------------------------------------------------------+
|        File Writing Summary       |              Filename             |
+-----------------------------------------------------------------------+
|SU2 binary restart                 |restart_flow_databladeVALIDATION_Blade_23.dat|
|                                   |                       (12507 MB/s)|
|Paraview                           |volume_flow_databladeVALIDATION_Blade_23.vtu|
|                                   |                      (981.21 MB/s)|
|Paraview surface                   |surface_flowdatabladeVALIDATION_Blade_23.vtu|
|                                   |                     (90.6986 MB/s)|
|SU2 ASCII restart                  |restart_flow_databladeVALIDATION_Blade_23.csv|
|                                   |                     (21.0931 MB/s)|
|CSV file                           |surface_flowdatabladeVALIDATION_Blade_23.csv|
|                                   |                     (20.4675 MB/s)|
+-----------------------------------------------------------------------+
+--------------------------------------+
|  Inner_Iter|    Cur_Time|    rms[Rho]|
+--------------------------------------+
|        1060|  0.0000e+00|   -4.455421|
|        1070|  0.0000e+00|   -4.481180|
|        1080|  0.0000e+00|   -4.488500|
|        1090|  0.0000e+00|   -4.469809|
|        1100|  0.0000e+00|   -4.443253|
+-----------------------------------------------------------------------+
|        File Writing Summary       |              Filename             |
+-----------------------------------------------------------------------+
|SU2 binary restart                 |restart_flow_databladeVALIDATION_Blade_23.dat|
|                                   |                     (9827.02 MB/s)|
|Paraview                           |volume_flow_databladeVALIDATION_Blade_23.vtu|
|                                   |                     (1054.35 MB/s)|
|Paraview surface                   |surface_flowdatabladeVALIDATION_Blade_23.vtu|
|                                   |                     (124.792 MB/s)|
|SU2 ASCII restart                  |restart_flow_databladeVALIDATION_Blade_23.csv|
|                                   |                     (20.5629 MB/s)|
|CSV file                           |surface_flowdatabladeVALIDATION_Blade_23.csv|
|                                   |                     (20.6437 MB/s)|
+-----------------------------------------------------------------------+
+--------------------------------------+
|  Inner_Iter|    Cur_Time|    rms[Rho]|
+--------------------------------------+
|        1110|  0.0000e+00|   -4.482212|
|        1120|  0.0000e+00|   -4.471237|
|        1130|  0.0000e+00|   -4.443383|
|        1140|  0.0000e+00|   -4.448107|
|        1150|  0.0000e+00|   -4.486426|
+-----------------------------------------------------------------------+
|        File Writing Summary       |              Filename             |
+-----------------------------------------------------------------------+
|SU2 binary restart                 |restart_flow_databladeVALIDATION_Blade_23.dat|
|                                   |                     (12572.4 MB/s)|
|Paraview                           |volume_flow_databladeVALIDATION_Blade_23.vtu|
|                                   |                     (1004.67 MB/s)|
|Paraview surface                   |surface_flowdatabladeVALIDATION_Blade_23.vtu|
|                                   |                     (95.4645 MB/s)|
|SU2 ASCII restart                  |restart_flow_databladeVALIDATION_Blade_23.csv|
|                                   |                     (20.8688 MB/s)|
|CSV file                           |surface_flowdatabladeVALIDATION_Blade_23.csv|
|                                   |                      (21.133 MB/s)|
+-----------------------------------------------------------------------+
+--------------------------------------+
|  Inner_Iter|    Cur_Time|    rms[Rho]|
+--------------------------------------+
|        1160|  0.0000e+00|   -4.519062|
|        1170|  0.0000e+00|   -4.537786|
|        1180|  0.0000e+00|   -4.522035|
|        1190|  0.0000e+00|   -4.545631|
|        1200|  0.0000e+00|   -4.576132|
+-----------------------------------------------------------------------+
|        File Writing Summary       |              Filename             |
+-----------------------------------------------------------------------+
|SU2 binary restart                 |restart_flow_databladeVALIDATION_Blade_23.dat|
|                                   |                     (11437.2 MB/s)|
|Paraview                           |volume_flow_databladeVALIDATION_Blade_23.vtu|
|                                   |                     (1062.23 MB/s)|
|Paraview surface                   |surface_flowdatabladeVALIDATION_Blade_23.vtu|
|                                   |                     (96.9931 MB/s)|
|SU2 ASCII restart                  |restart_flow_databladeVALIDATION_Blade_23.csv|
|                                   |                     (21.2426 MB/s)|
|CSV file                           |surface_flowdatabladeVALIDATION_Blade_23.csv|
|                                   |                     (21.4019 MB/s)|
+-----------------------------------------------------------------------+
+--------------------------------------+
|  Inner_Iter|    Cur_Time|    rms[Rho]|
+--------------------------------------+
|        1210|  0.0000e+00|   -4.577207|
|        1220|  0.0000e+00|   -4.581950|
|        1230|  0.0000e+00|   -4.603928|
|        1240|  0.0000e+00|   -4.620633|
|        1250|  0.0000e+00|   -4.584891|
+-----------------------------------------------------------------------+
|        File Writing Summary       |              Filename             |
+-----------------------------------------------------------------------+
|SU2 binary restart                 |restart_flow_databladeVALIDATION_Blade_23.dat|
|                                   |                     (12178.1 MB/s)|
|Paraview                           |volume_flow_databladeVALIDATION_Blade_23.vtu|
|                                   |                     (1081.89 MB/s)|
|Paraview surface                   |surface_flowdatabladeVALIDATION_Blade_23.vtu|
|                                   |                     (95.9737 MB/s)|
|SU2 ASCII restart                  |restart_flow_databladeVALIDATION_Blade_23.csv|
|                                   |                     (20.7763 MB/s)|
|CSV file                           |surface_flowdatabladeVALIDATION_Blade_23.csv|
|                                   |                     (18.8263 MB/s)|
+-----------------------------------------------------------------------+
+--------------------------------------+
|  Inner_Iter|    Cur_Time|    rms[Rho]|
+--------------------------------------+
|        1260|  0.0000e+00|   -4.544331|
|        1270|  0.0000e+00|   -4.574869|
|        1280|  0.0000e+00|   -4.584043|
|        1290|  0.0000e+00|   -4.558064|
|        1300|  0.0000e+00|   -4.543889|
+-----------------------------------------------------------------------+
|        File Writing Summary       |              Filename             |
+-----------------------------------------------------------------------+
|SU2 binary restart                 |restart_flow_databladeVALIDATION_Blade_23.dat|
|                                   |                     (12683.4 MB/s)|
|Paraview                           |volume_flow_databladeVALIDATION_Blade_23.vtu|
|                                   |                     (1010.93 MB/s)|
|Paraview surface                   |surface_flowdatabladeVALIDATION_Blade_23.vtu|
|                                   |                     (98.3062 MB/s)|
|SU2 ASCII restart                  |restart_flow_databladeVALIDATION_Blade_23.csv|
|                                   |                     (21.1771 MB/s)|
|CSV file                           |surface_flowdatabladeVALIDATION_Blade_23.csv|
|                                   |                      (20.433 MB/s)|
+-----------------------------------------------------------------------+
+--------------------------------------+
|  Inner_Iter|    Cur_Time|    rms[Rho]|
+--------------------------------------+
|        1310|  0.0000e+00|   -4.567903|
|        1320|  0.0000e+00|   -4.574374|
|        1330|  0.0000e+00|   -4.603859|
|        1340|  0.0000e+00|   -4.653078|
|        1350|  0.0000e+00|   -4.719061|
+-----------------------------------------------------------------------+
|        File Writing Summary       |              Filename             |
+-----------------------------------------------------------------------+
|SU2 binary restart                 |restart_flow_databladeVALIDATION_Blade_23.dat|
|                                   |                     (12113.8 MB/s)|
|Paraview                           |volume_flow_databladeVALIDATION_Blade_23.vtu|
|                                   |                     (944.123 MB/s)|
|Paraview surface                   |surface_flowdatabladeVALIDATION_Blade_23.vtu|
|                                   |                     (97.8235 MB/s)|
|SU2 ASCII restart                  |restart_flow_databladeVALIDATION_Blade_23.csv|
|                                   |                     (20.8607 MB/s)|
|CSV file                           |surface_flowdatabladeVALIDATION_Blade_23.csv|
|                                   |                     (20.6788 MB/s)|
+-----------------------------------------------------------------------+
+--------------------------------------+
|  Inner_Iter|    Cur_Time|    rms[Rho]|
+--------------------------------------+
|        1360|  0.0000e+00|   -4.712344|
|        1370|  0.0000e+00|   -4.752439|
|        1380|  0.0000e+00|   -4.775979|
|        1390|  0.0000e+00|   -4.771392|
|        1400|  0.0000e+00|   -4.741974|
+-----------------------------------------------------------------------+
|        File Writing Summary       |              Filename             |
+-----------------------------------------------------------------------+
|SU2 binary restart                 |restart_flow_databladeVALIDATION_Blade_23.dat|
|                                   |                     (11882.6 MB/s)|
|Paraview                           |volume_flow_databladeVALIDATION_Blade_23.vtu|
|                                   |                     (988.201 MB/s)|
|Paraview surface                   |surface_flowdatabladeVALIDATION_Blade_23.vtu|
|                                   |                     (96.0311 MB/s)|
|SU2 ASCII restart                  |restart_flow_databladeVALIDATION_Blade_23.csv|
|                                   |                     (20.9711 MB/s)|
|CSV file                           |surface_flowdatabladeVALIDATION_Blade_23.csv|
|                                   |                     (21.3424 MB/s)|
+-----------------------------------------------------------------------+
+--------------------------------------+
|  Inner_Iter|    Cur_Time|    rms[Rho]|
+--------------------------------------+
|        1410|  0.0000e+00|   -4.785686|
|        1420|  0.0000e+00|   -4.793191|
|        1430|  0.0000e+00|   -4.778085|
|        1440|  0.0000e+00|   -4.757475|
|        1450|  0.0000e+00|   -4.813675|
+-----------------------------------------------------------------------+
|        File Writing Summary       |              Filename             |
+-----------------------------------------------------------------------+
|SU2 binary restart                 |restart_flow_databladeVALIDATION_Blade_23.dat|
|                                   |                     (12372.1 MB/s)|
|Paraview                           |volume_flow_databladeVALIDATION_Blade_23.vtu|
|                                   |                     (1028.01 MB/s)|
|Paraview surface                   |surface_flowdatabladeVALIDATION_Blade_23.vtu|
|                                   |                      (97.895 MB/s)|
|SU2 ASCII restart                  |restart_flow_databladeVALIDATION_Blade_23.csv|
|                                   |                     (20.8989 MB/s)|
|CSV file                           |surface_flowdatabladeVALIDATION_Blade_23.csv|
|                                   |                     (21.5297 MB/s)|
+-----------------------------------------------------------------------+
+--------------------------------------+
|  Inner_Iter|    Cur_Time|    rms[Rho]|
+--------------------------------------+
|        1460|  0.0000e+00|   -4.744366|
|        1470|  0.0000e+00|   -4.796577|
|        1480|  0.0000e+00|   -4.858536|
|        1490|  0.0000e+00|   -4.864121|
|        1500|  0.0000e+00|   -4.816444|
+-----------------------------------------------------------------------+
|        File Writing Summary       |              Filename             |
+-----------------------------------------------------------------------+
|SU2 binary restart                 |restart_flow_databladeVALIDATION_Blade_23.dat|
|                                   |                     (14192.3 MB/s)|
|Paraview                           |volume_flow_databladeVALIDATION_Blade_23.vtu|
|                                   |                     (963.842 MB/s)|
|Paraview surface                   |surface_flowdatabladeVALIDATION_Blade_23.vtu|
|                                   |                     (100.536 MB/s)|
|SU2 ASCII restart                  |restart_flow_databladeVALIDATION_Blade_23.csv|
|                                   |                     (21.4161 MB/s)|
|CSV file                           |surface_flowdatabladeVALIDATION_Blade_23.csv|
|                                   |                     (20.5397 MB/s)|
+-----------------------------------------------------------------------+
+--------------------------------------+
|  Inner_Iter|    Cur_Time|    rms[Rho]|
+--------------------------------------+
|        1510|  0.0000e+00|   -4.852376|
|        1520|  0.0000e+00|   -4.829720|
|        1530|  0.0000e+00|   -4.869312|
|        1540|  0.0000e+00|   -4.885835|
|        1550|  0.0000e+00|   -4.857297|
+-----------------------------------------------------------------------+
|        File Writing Summary       |              Filename             |
+-----------------------------------------------------------------------+
|SU2 binary restart                 |restart_flow_databladeVALIDATION_Blade_23.dat|
|                                   |                     (13089.3 MB/s)|
|Paraview                           |volume_flow_databladeVALIDATION_Blade_23.vtu|
|                                   |                     (1103.99 MB/s)|
|Paraview surface                   |surface_flowdatabladeVALIDATION_Blade_23.vtu|
|                                   |                     (97.9348 MB/s)|
|SU2 ASCII restart                  |restart_flow_databladeVALIDATION_Blade_23.csv|
|                                   |                     (20.7256 MB/s)|
|CSV file                           |surface_flowdatabladeVALIDATION_Blade_23.csv|
|                                   |                     (21.0489 MB/s)|
+-----------------------------------------------------------------------+
+--------------------------------------+
|  Inner_Iter|    Cur_Time|    rms[Rho]|
+--------------------------------------+
|        1560|  0.0000e+00|   -4.876380|
|        1570|  0.0000e+00|   -4.906037|
|        1580|  0.0000e+00|   -4.917947|
|        1590|  0.0000e+00|   -4.904544|
|        1600|  0.0000e+00|   -4.910268|
+-----------------------------------------------------------------------+
|        File Writing Summary       |              Filename             |
+-----------------------------------------------------------------------+
|SU2 binary restart                 |restart_flow_databladeVALIDATION_Blade_23.dat|
|                                   |                     (10507.2 MB/s)|
|Paraview                           |volume_flow_databladeVALIDATION_Blade_23.vtu|
|                                   |                     (1020.21 MB/s)|
|Paraview surface                   |surface_flowdatabladeVALIDATION_Blade_23.vtu|
|                                   |                     (78.6886 MB/s)|
|SU2 ASCII restart                  |restart_flow_databladeVALIDATION_Blade_23.csv|
|                                   |                     (20.9529 MB/s)|
|CSV file                           |surface_flowdatabladeVALIDATION_Blade_23.csv|
|                                   |                     (16.9653 MB/s)|
+-----------------------------------------------------------------------+
+--------------------------------------+
|  Inner_Iter|    Cur_Time|    rms[Rho]|
+--------------------------------------+
|        1610|  0.0000e+00|   -4.950351|
|        1620|  0.0000e+00|   -4.951539|
|        1630|  0.0000e+00|   -4.916851|
|        1640|  0.0000e+00|   -4.934094|
|        1650|  0.0000e+00|   -4.949949|
+-----------------------------------------------------------------------+
|        File Writing Summary       |              Filename             |
+-----------------------------------------------------------------------+
|SU2 binary restart                 |restart_flow_databladeVALIDATION_Blade_23.dat|
|                                   |                     (11524.6 MB/s)|
|Paraview                           |volume_flow_databladeVALIDATION_Blade_23.vtu|
|                                   |                     (820.489 MB/s)|
|Paraview surface                   |surface_flowdatabladeVALIDATION_Blade_23.vtu|
|                                   |                     (90.7259 MB/s)|
|SU2 ASCII restart                  |restart_flow_databladeVALIDATION_Blade_23.csv|
|                                   |                     (19.5199 MB/s)|
|CSV file                           |surface_flowdatabladeVALIDATION_Blade_23.csv|
|                                   |                     (19.4108 MB/s)|
+-----------------------------------------------------------------------+
+--------------------------------------+
|  Inner_Iter|    Cur_Time|    rms[Rho]|
+--------------------------------------+
|        1660|  0.0000e+00|   -4.987932|
|        1670|  0.0000e+00|   -5.028405|
|        1680|  0.0000e+00|   -5.029183|
|        1690|  0.0000e+00|   -5.008534|
|        1700|  0.0000e+00|   -5.046004|
+-----------------------------------------------------------------------+
|        File Writing Summary       |              Filename             |
+-----------------------------------------------------------------------+
|SU2 binary restart                 |restart_flow_databladeVALIDATION_Blade_23.dat|
|                                   |                     (11617.8 MB/s)|
|Paraview                           |volume_flow_databladeVALIDATION_Blade_23.vtu|
|                                   |                     (886.208 MB/s)|
|Paraview surface                   |surface_flowdatabladeVALIDATION_Blade_23.vtu|
|                                   |                     (90.7977 MB/s)|
|SU2 ASCII restart                  |restart_flow_databladeVALIDATION_Blade_23.csv|
|                                   |                      (20.625 MB/s)|
|CSV file                           |surface_flowdatabladeVALIDATION_Blade_23.csv|
|                                   |                     (22.0892 MB/s)|
+-----------------------------------------------------------------------+
+--------------------------------------+
|  Inner_Iter|    Cur_Time|    rms[Rho]|
+--------------------------------------+
|        1710|  0.0000e+00|   -5.040487|
|        1720|  0.0000e+00|   -5.016880|
|        1730|  0.0000e+00|   -5.037928|
|        1740|  0.0000e+00|   -5.043682|
|        1750|  0.0000e+00|   -5.030618|
+-----------------------------------------------------------------------+
|        File Writing Summary       |              Filename             |
+-----------------------------------------------------------------------+
|SU2 binary restart                 |restart_flow_databladeVALIDATION_Blade_23.dat|
|                                   |                     (12068.2 MB/s)|
|Paraview                           |volume_flow_databladeVALIDATION_Blade_23.vtu|
|                                   |                     (972.164 MB/s)|
|Paraview surface                   |surface_flowdatabladeVALIDATION_Blade_23.vtu|
|                                   |                     (124.883 MB/s)|
|SU2 ASCII restart                  |restart_flow_databladeVALIDATION_Blade_23.csv|
|                                   |                     (20.4025 MB/s)|
|CSV file                           |surface_flowdatabladeVALIDATION_Blade_23.csv|
|                                   |                     (19.5547 MB/s)|
+-----------------------------------------------------------------------+
+--------------------------------------+
|  Inner_Iter|    Cur_Time|    rms[Rho]|
+--------------------------------------+
|        1760|  0.0000e+00|   -5.017442|
|        1770|  0.0000e+00|   -5.057215|
|        1780|  0.0000e+00|   -5.033819|
|        1790|  0.0000e+00|   -5.080097|
|        1800|  0.0000e+00|   -5.066681|
+-----------------------------------------------------------------------+
|        File Writing Summary       |              Filename             |
+-----------------------------------------------------------------------+
|SU2 binary restart                 |restart_flow_databladeVALIDATION_Blade_23.dat|
|                                   |                     (11402.4 MB/s)|
|Paraview                           |volume_flow_databladeVALIDATION_Blade_23.vtu|
|                                   |                     (1064.77 MB/s)|
|Paraview surface                   |surface_flowdatabladeVALIDATION_Blade_23.vtu|
|                                   |                     (90.9347 MB/s)|
|SU2 ASCII restart                  |restart_flow_databladeVALIDATION_Blade_23.csv|
|                                   |                     (20.5196 MB/s)|
|CSV file                           |surface_flowdatabladeVALIDATION_Blade_23.csv|
|                                   |                     (21.3402 MB/s)|
+-----------------------------------------------------------------------+
+--------------------------------------+
|  Inner_Iter|    Cur_Time|    rms[Rho]|
+--------------------------------------+
|        1810|  0.0000e+00|   -5.097720|
|        1820|  0.0000e+00|   -5.102816|
|        1830|  0.0000e+00|   -5.091747|
|        1840|  0.0000e+00|   -5.078348|
|        1850|  0.0000e+00|   -5.114386|
+-----------------------------------------------------------------------+
|        File Writing Summary       |              Filename             |
+-----------------------------------------------------------------------+
|SU2 binary restart                 |restart_flow_databladeVALIDATION_Blade_23.dat|
|                                   |                     (11297.7 MB/s)|
|Paraview                           |volume_flow_databladeVALIDATION_Blade_23.vtu|
|                                   |                     (997.065 MB/s)|
|Paraview surface                   |surface_flowdatabladeVALIDATION_Blade_23.vtu|
|                                   |                       (96.81 MB/s)|
|SU2 ASCII restart                  |restart_flow_databladeVALIDATION_Blade_23.csv|
|                                   |                     (20.8779 MB/s)|
|CSV file                           |surface_flowdatabladeVALIDATION_Blade_23.csv|
|                                   |                     (21.2082 MB/s)|
+-----------------------------------------------------------------------+
+--------------------------------------+
|  Inner_Iter|    Cur_Time|    rms[Rho]|
+--------------------------------------+
|        1860|  0.0000e+00|   -5.099453|
|        1870|  0.0000e+00|   -5.075802|
|        1880|  0.0000e+00|   -5.119587|
|        1890|  0.0000e+00|   -5.134701|
|        1900|  0.0000e+00|   -5.136100|
+-----------------------------------------------------------------------+
|        File Writing Summary       |              Filename             |
+-----------------------------------------------------------------------+
|SU2 binary restart                 |restart_flow_databladeVALIDATION_Blade_23.dat|
|                                   |                       (10181 MB/s)|
|Paraview                           |volume_flow_databladeVALIDATION_Blade_23.vtu|
|                                   |                     (983.495 MB/s)|
|Paraview surface                   |surface_flowdatabladeVALIDATION_Blade_23.vtu|
|                                   |                     (84.2546 MB/s)|
|SU2 ASCII restart                  |restart_flow_databladeVALIDATION_Blade_23.csv|
|                                   |                     (21.3579 MB/s)|
|CSV file                           |surface_flowdatabladeVALIDATION_Blade_23.csv|
|                                   |                     (20.1671 MB/s)|
+-----------------------------------------------------------------------+
+--------------------------------------+
|  Inner_Iter|    Cur_Time|    rms[Rho]|
+--------------------------------------+
|        1910|  0.0000e+00|   -5.115895|
|        1920|  0.0000e+00|   -5.156747|
|        1930|  0.0000e+00|   -5.159057|
|        1940|  0.0000e+00|   -5.152772|
|        1950|  0.0000e+00|   -5.168637|
+-----------------------------------------------------------------------+
|        File Writing Summary       |              Filename             |
+-----------------------------------------------------------------------+
|SU2 binary restart                 |restart_flow_databladeVALIDATION_Blade_23.dat|
|                                   |                     (12888.5 MB/s)|
|Paraview                           |volume_flow_databladeVALIDATION_Blade_23.vtu|
|                                   |                     (1062.04 MB/s)|
|Paraview surface                   |surface_flowdatabladeVALIDATION_Blade_23.vtu|
|                                   |                     (93.5203 MB/s)|
|SU2 ASCII restart                  |restart_flow_databladeVALIDATION_Blade_23.csv|
|                                   |                     (21.0935 MB/s)|
|CSV file                           |surface_flowdatabladeVALIDATION_Blade_23.csv|
|                                   |                     (20.1733 MB/s)|
+-----------------------------------------------------------------------+
+--------------------------------------+
|  Inner_Iter|    Cur_Time|    rms[Rho]|
+--------------------------------------+
|        1960|  0.0000e+00|   -5.175259|
|        1970|  0.0000e+00|   -5.134335|
|        1980|  0.0000e+00|   -5.177449|
|        1990|  0.0000e+00|   -5.183704|
|        2000|  0.0000e+00|   -5.165152|
+-----------------------------------------------------------------------+
|        File Writing Summary       |              Filename             |
+-----------------------------------------------------------------------+
|SU2 binary restart                 |restart_flow_databladeVALIDATION_Blade_23.dat|
|                                   |                     (12395.1 MB/s)|
|Paraview                           |volume_flow_databladeVALIDATION_Blade_23.vtu|
|                                   |                     (1003.36 MB/s)|
|Paraview surface                   |surface_flowdatabladeVALIDATION_Blade_23.vtu|
|                                   |                     (95.7641 MB/s)|
|SU2 ASCII restart                  |restart_flow_databladeVALIDATION_Blade_23.csv|
|                                   |                     (21.1314 MB/s)|
|CSV file                           |surface_flowdatabladeVALIDATION_Blade_23.csv|
|                                   |                      (19.873 MB/s)|
+-----------------------------------------------------------------------+
+--------------------------------------+
|  Inner_Iter|    Cur_Time|    rms[Rho]|
+--------------------------------------+
|        2010|  0.0000e+00|   -5.147844|
|        2020|  0.0000e+00|   -5.174358|
|        2030|  0.0000e+00|   -5.202677|
|        2040|  0.0000e+00|   -5.208688|
|        2050|  0.0000e+00|   -5.200739|
+-----------------------------------------------------------------------+
|        File Writing Summary       |              Filename             |
+-----------------------------------------------------------------------+
|SU2 binary restart                 |restart_flow_databladeVALIDATION_Blade_23.dat|
|                                   |                     (11172.9 MB/s)|
|Paraview                           |volume_flow_databladeVALIDATION_Blade_23.vtu|
|                                   |                     (1025.14 MB/s)|
|Paraview surface                   |surface_flowdatabladeVALIDATION_Blade_23.vtu|
|                                   |                     (100.987 MB/s)|
|SU2 ASCII restart                  |restart_flow_databladeVALIDATION_Blade_23.csv|
|                                   |                          (21 MB/s)|
|CSV file                           |surface_flowdatabladeVALIDATION_Blade_23.csv|
|                                   |                      (20.536 MB/s)|
+-----------------------------------------------------------------------+
+--------------------------------------+
|  Inner_Iter|    Cur_Time|    rms[Rho]|
+--------------------------------------+
|        2060|  0.0000e+00|   -5.205046|
|        2070|  0.0000e+00|   -5.231271|
|        2080|  0.0000e+00|   -5.266757|
|        2090|  0.0000e+00|   -5.290472|
|        2100|  0.0000e+00|   -5.290375|
+-----------------------------------------------------------------------+
|        File Writing Summary       |              Filename             |
+-----------------------------------------------------------------------+
|SU2 binary restart                 |restart_flow_databladeVALIDATION_Blade_23.dat|
|                                   |                     (11901.9 MB/s)|
|Paraview                           |volume_flow_databladeVALIDATION_Blade_23.vtu|
|                                   |                      (1045.2 MB/s)|
|Paraview surface                   |surface_flowdatabladeVALIDATION_Blade_23.vtu|
|                                   |                     (99.5894 MB/s)|
|SU2 ASCII restart                  |restart_flow_databladeVALIDATION_Blade_23.csv|
|                                   |                     (20.5089 MB/s)|
|CSV file                           |surface_flowdatabladeVALIDATION_Blade_23.csv|
|                                   |                     (20.7391 MB/s)|
+-----------------------------------------------------------------------+
+--------------------------------------+
|  Inner_Iter|    Cur_Time|    rms[Rho]|
+--------------------------------------+
|        2110|  0.0000e+00|   -5.285716|
|        2120|  0.0000e+00|   -5.299897|
|        2130|  0.0000e+00|   -5.331940|
|        2140|  0.0000e+00|   -5.361898|
|        2150|  0.0000e+00|   -5.377554|
+-----------------------------------------------------------------------+
|        File Writing Summary       |              Filename             |
+-----------------------------------------------------------------------+
|SU2 binary restart                 |restart_flow_databladeVALIDATION_Blade_23.dat|
|                                   |                     (12290.1 MB/s)|
|Paraview                           |volume_flow_databladeVALIDATION_Blade_23.vtu|
|                                   |                     (974.725 MB/s)|
|Paraview surface                   |surface_flowdatabladeVALIDATION_Blade_23.vtu|
|                                   |                     (94.5324 MB/s)|
|SU2 ASCII restart                  |restart_flow_databladeVALIDATION_Blade_23.csv|
|                                   |                     (20.8991 MB/s)|
|CSV file                           |surface_flowdatabladeVALIDATION_Blade_23.csv|
|                                   |                     (21.8995 MB/s)|
+-----------------------------------------------------------------------+
+--------------------------------------+
|  Inner_Iter|    Cur_Time|    rms[Rho]|
+--------------------------------------+
|        2160|  0.0000e+00|   -5.385073|
|        2170|  0.0000e+00|   -5.395324|
|        2180|  0.0000e+00|   -5.412666|
|        2190|  0.0000e+00|   -5.434685|
|        2200|  0.0000e+00|   -5.453752|
+-----------------------------------------------------------------------+
|        File Writing Summary       |              Filename             |
+-----------------------------------------------------------------------+
|SU2 binary restart                 |restart_flow_databladeVALIDATION_Blade_23.dat|
|                                   |                     (10854.3 MB/s)|
|Paraview                           |volume_flow_databladeVALIDATION_Blade_23.vtu|
|                                   |                     (910.173 MB/s)|
|Paraview surface                   |surface_flowdatabladeVALIDATION_Blade_23.vtu|
|                                   |                     (88.0326 MB/s)|
|SU2 ASCII restart                  |restart_flow_databladeVALIDATION_Blade_23.csv|
|                                   |                     (21.0691 MB/s)|
|CSV file                           |surface_flowdatabladeVALIDATION_Blade_23.csv|
|                                   |                     (20.6041 MB/s)|
+-----------------------------------------------------------------------+
+--------------------------------------+
|  Inner_Iter|    Cur_Time|    rms[Rho]|
+--------------------------------------+
|        2210|  0.0000e+00|   -5.465261|
|        2220|  0.0000e+00|   -5.489302|
|        2230|  0.0000e+00|   -5.478476|
|        2240|  0.0000e+00|   -5.497897|
|        2250|  0.0000e+00|   -5.510134|
+-----------------------------------------------------------------------+
|        File Writing Summary       |              Filename             |
+-----------------------------------------------------------------------+
|SU2 binary restart                 |restart_flow_databladeVALIDATION_Blade_23.dat|
|                                   |                     (11932.4 MB/s)|
|Paraview                           |volume_flow_databladeVALIDATION_Blade_23.vtu|
|                                   |                     (1038.82 MB/s)|
|Paraview surface                   |surface_flowdatabladeVALIDATION_Blade_23.vtu|
|                                   |                     (100.386 MB/s)|
|SU2 ASCII restart                  |restart_flow_databladeVALIDATION_Blade_23.csv|
|                                   |                     (20.8409 MB/s)|
|CSV file                           |surface_flowdatabladeVALIDATION_Blade_23.csv|
|                                   |                     (20.5215 MB/s)|
+-----------------------------------------------------------------------+
+--------------------------------------+
|  Inner_Iter|    Cur_Time|    rms[Rho]|
+--------------------------------------+
|        2260|  0.0000e+00|   -5.487548|
|        2270|  0.0000e+00|   -5.515667|
|        2280|  0.0000e+00|   -5.507680|
|        2290|  0.0000e+00|   -5.528409|
|        2300|  0.0000e+00|   -5.545149|
+-----------------------------------------------------------------------+
|        File Writing Summary       |              Filename             |
+-----------------------------------------------------------------------+
|SU2 binary restart                 |restart_flow_databladeVALIDATION_Blade_23.dat|
|                                   |                     (12531.4 MB/s)|
|Paraview                           |volume_flow_databladeVALIDATION_Blade_23.vtu|
|                                   |                     (1012.13 MB/s)|
|Paraview surface                   |surface_flowdatabladeVALIDATION_Blade_23.vtu|
|                                   |                     (82.6345 MB/s)|
|SU2 ASCII restart                  |restart_flow_databladeVALIDATION_Blade_23.csv|
|                                   |                     (20.8744 MB/s)|
|CSV file                           |surface_flowdatabladeVALIDATION_Blade_23.csv|
|                                   |                      (21.085 MB/s)|
+-----------------------------------------------------------------------+
+--------------------------------------+
|  Inner_Iter|    Cur_Time|    rms[Rho]|
+--------------------------------------+
|        2310|  0.0000e+00|   -5.545910|
|        2320|  0.0000e+00|   -5.552706|
|        2330|  0.0000e+00|   -5.558260|
|        2340|  0.0000e+00|   -5.574272|
|        2350|  0.0000e+00|   -5.600725|
+-----------------------------------------------------------------------+
|        File Writing Summary       |              Filename             |
+-----------------------------------------------------------------------+
|SU2 binary restart                 |restart_flow_databladeVALIDATION_Blade_23.dat|
|                                   |                     (11249.8 MB/s)|
|Paraview                           |volume_flow_databladeVALIDATION_Blade_23.vtu|
[...]
+-----------------------------------------------------------------------+
|SU2 binary restart                 |restart_flow_databladeVALIDATION_Blade_23.dat|
|                                   |                     (9478.71 MB/s)|
|Paraview                           |volume_flow_databladeVALIDATION_Blade_23.vtu|
|                                   |                     (832.856 MB/s)|
|Paraview surface                   |surface_flowdatabladeVALIDATION_Blade_23.vtu|
|                                   |                     (74.9902 MB/s)|
|SU2 ASCII restart                  |restart_flow_databladeVALIDATION_Blade_23.csv|
|                                   |                      (20.101 MB/s)|
|CSV file                           |surface_flowdatabladeVALIDATION_Blade_23.csv|
|                                   |                     (19.2376 MB/s)|
+-----------------------------------------------------------------------+
+--------------------------------------+
|  Inner_Iter|    Cur_Time|    rms[Rho]|
+--------------------------------------+
|        3310|  0.0000e+00|   -6.354988|
|        3320|  0.0000e+00|   -6.361650|
|        3330|  0.0000e+00|   -6.352340|
|        3340|  0.0000e+00|   -6.370585|
|        3350|  0.0000e+00|   -6.394852|
+-----------------------------------------------------------------------+
|        File Writing Summary       |              Filename             |
+-----------------------------------------------------------------------+
|SU2 binary restart                 |restart_flow_databladeVALIDATION_Blade_23.dat|
|                                   |                     (12138.7 MB/s)|
|Paraview                           |volume_flow_databladeVALIDATION_Blade_23.vtu|
|                                   |                     (1187.49 MB/s)|
|Paraview surface                   |surface_flowdatabladeVALIDATION_Blade_23.vtu|
|                                   |                     (108.862 MB/s)|
|SU2 ASCII restart                  |restart_flow_databladeVALIDATION_Blade_23.csv|
|                                   |                     (20.0354 MB/s)|
|CSV file                           |surface_flowdatabladeVALIDATION_Blade_23.csv|
|                                   |                     (20.2624 MB/s)|
+-----------------------------------------------------------------------+
+--------------------------------------+
|  Inner_Iter|    Cur_Time|    rms[Rho]|
+--------------------------------------+
|        3360|  0.0000e+00|   -6.353489|
|        3370|  0.0000e+00|   -6.282743|
|        3380|  0.0000e+00|   -6.297989|
|        3390|  0.0000e+00|   -6.373616|
|        3400|  0.0000e+00|   -6.477907|
+-----------------------------------------------------------------------+
|        File Writing Summary       |              Filename             |
+-----------------------------------------------------------------------+
|SU2 binary restart                 |restart_flow_databladeVALIDATION_Blade_23.dat|
|                                   |                     (14572.9 MB/s)|
|Paraview                           |volume_flow_databladeVALIDATION_Blade_23.vtu|
|                                   |                     (985.625 MB/s)|
|Paraview surface                   |surface_flowdatabladeVALIDATION_Blade_23.vtu|
|                                   |                      (96.919 MB/s)|
|SU2 ASCII restart                  |restart_flow_databladeVALIDATION_Blade_23.csv|
|                                   |                     (19.7124 MB/s)|
|CSV file                           |surface_flowdatabladeVALIDATION_Blade_23.csv|
|                                   |                      (19.373 MB/s)|
+-----------------------------------------------------------------------+
+--------------------------------------+
|  Inner_Iter|    Cur_Time|    rms[Rho]|
+--------------------------------------+
|        3410|  0.0000e+00|   -6.438537|
|        3420|  0.0000e+00|   -6.495881|
|        3430|  0.0000e+00|   -6.470854|
|        3440|  0.0000e+00|   -6.416602|
|        3450|  0.0000e+00|   -6.447315|
+-----------------------------------------------------------------------+
|        File Writing Summary       |              Filename             |
+-----------------------------------------------------------------------+
|SU2 binary restart                 |restart_flow_databladeVALIDATION_Blade_23.dat|
|                                   |                      (490.04 MB/s)|
|Paraview                           |volume_flow_databladeVALIDATION_Blade_23.vtu|
|                                   |                     (992.924 MB/s)|
|Paraview surface                   |surface_flowdatabladeVALIDATION_Blade_23.vtu|
|                                   |                     (139.566 MB/s)|
|SU2 ASCII restart                  |restart_flow_databladeVALIDATION_Blade_23.csv|
|                                   |                     (20.0913 MB/s)|
|CSV file                           |surface_flowdatabladeVALIDATION_Blade_23.csv|
|                                   |                     (19.7376 MB/s)|
+-----------------------------------------------------------------------+
+--------------------------------------+
|  Inner_Iter|    Cur_Time|    rms[Rho]|
+--------------------------------------+
|        3460|  0.0000e+00|   -6.515227|
|        3470|  0.0000e+00|   -6.479347|
|        3480|  0.0000e+00|   -6.458740|
|        3490|  0.0000e+00|   -6.570361|
|        3500|  0.0000e+00|   -6.577163|
+-----------------------------------------------------------------------+
|        File Writing Summary       |              Filename             |
+-----------------------------------------------------------------------+
|SU2 binary restart                 |restart_flow_databladeVALIDATION_Blade_23.dat|
|                                   |                     (6601.69 MB/s)|
|Paraview                           |volume_flow_databladeVALIDATION_Blade_23.vtu|
|                                   |                     (807.954 MB/s)|
|Paraview surface                   |surface_flowdatabladeVALIDATION_Blade_23.vtu|
|                                   |                      (47.964 MB/s)|
|SU2 ASCII restart                  |restart_flow_databladeVALIDATION_Blade_23.csv|
|                                   |                     (19.4477 MB/s)|
|CSV file                           |surface_flowdatabladeVALIDATION_Blade_23.csv|
|                                   |                     (17.4645 MB/s)|
+-----------------------------------------------------------------------+
+--------------------------------------+
|  Inner_Iter|    Cur_Time|    rms[Rho]|
+--------------------------------------+
|        3510|  0.0000e+00|   -6.567225|
|        3520|  0.0000e+00|   -6.555013|
|        3530|  0.0000e+00|   -6.597263|
|        3540|  0.0000e+00|   -6.554084|
|        3550|  0.0000e+00|   -6.533553|
+-----------------------------------------------------------------------+
|        File Writing Summary       |              Filename             |
+-----------------------------------------------------------------------+
|SU2 binary restart                 |restart_flow_databladeVALIDATION_Blade_23.dat|
|                                   |                     (12048.4 MB/s)|
|Paraview                           |volume_flow_databladeVALIDATION_Blade_23.vtu|
|                                   |                      (262.52 MB/s)|
|Paraview surface                   |surface_flowdatabladeVALIDATION_Blade_23.vtu|
|                                   |                     (72.6228 MB/s)|
|SU2 ASCII restart                  |restart_flow_databladeVALIDATION_Blade_23.csv|
|                                   |                     (19.8829 MB/s)|
|CSV file                           |surface_flowdatabladeVALIDATION_Blade_23.csv|
|                                   |                     (19.8221 MB/s)|
+-----------------------------------------------------------------------+
+--------------------------------------+
|  Inner_Iter|    Cur_Time|    rms[Rho]|
+--------------------------------------+
|        3560|  0.0000e+00|   -6.606123|
|        3570|  0.0000e+00|   -6.631291|
|        3580|  0.0000e+00|   -6.608829|
|        3590|  0.0000e+00|   -6.633898|
|        3600|  0.0000e+00|   -6.632131|
+-----------------------------------------------------------------------+
|        File Writing Summary       |              Filename             |
+-----------------------------------------------------------------------+
|SU2 binary restart                 |restart_flow_databladeVALIDATION_Blade_23.dat|
|                                   |                     (11923.2 MB/s)|
|Paraview                           |volume_flow_databladeVALIDATION_Blade_23.vtu|
|                                   |                     (1006.96 MB/s)|
|Paraview surface                   |surface_flowdatabladeVALIDATION_Blade_23.vtu|
|                                   |                     (94.1374 MB/s)|
|SU2 ASCII restart                  |restart_flow_databladeVALIDATION_Blade_23.csv|
|                                   |                     (18.5039 MB/s)|
|CSV file                           |surface_flowdatabladeVALIDATION_Blade_23.csv|
|                                   |                     (17.9118 MB/s)|
+-----------------------------------------------------------------------+
+--------------------------------------+
|  Inner_Iter|    Cur_Time|    rms[Rho]|
+--------------------------------------+
|        3610|  0.0000e+00|   -6.646540|
|        3620|  0.0000e+00|   -6.676196|
|        3630|  0.0000e+00|   -6.697640|
|        3640|  0.0000e+00|   -6.700966|
|        3650|  0.0000e+00|   -6.712700|
+-----------------------------------------------------------------------+
|        File Writing Summary       |              Filename             |
+-----------------------------------------------------------------------+
|SU2 binary restart                 |restart_flow_databladeVALIDATION_Blade_23.dat|
|                                   |                     (11156.7 MB/s)|
|Paraview                           |volume_flow_databladeVALIDATION_Blade_23.vtu|
|                                   |                     (753.223 MB/s)|
|Paraview surface                   |surface_flowdatabladeVALIDATION_Blade_23.vtu|
|                                   |                     (95.6425 MB/s)|
|SU2 ASCII restart                  |restart_flow_databladeVALIDATION_Blade_23.csv|
|                                   |                      (19.616 MB/s)|
|CSV file                           |surface_flowdatabladeVALIDATION_Blade_23.csv|
|                                   |                     (15.4984 MB/s)|
+-----------------------------------------------------------------------+
+--------------------------------------+
|  Inner_Iter|    Cur_Time|    rms[Rho]|
+--------------------------------------+
|        3660|  0.0000e+00|   -6.739117|
|        3670|  0.0000e+00|   -6.756194|
|        3680|  0.0000e+00|   -6.758477|
|        3690|  0.0000e+00|   -6.768092|
|        3700|  0.0000e+00|   -6.789767|
+-----------------------------------------------------------------------+
|        File Writing Summary       |              Filename             |
+-----------------------------------------------------------------------+
|SU2 binary restart                 |restart_flow_databladeVALIDATION_Blade_23.dat|
|                                   |                        (8492 MB/s)|
|Paraview                           |volume_flow_databladeVALIDATION_Blade_23.vtu|
|                                   |                     (387.514 MB/s)|
|Paraview surface                   |surface_flowdatabladeVALIDATION_Blade_23.vtu|
|                                   |                      (30.414 MB/s)|
|SU2 ASCII restart                  |restart_flow_databladeVALIDATION_Blade_23.csv|
|                                   |                      (19.839 MB/s)|
|CSV file                           |surface_flowdatabladeVALIDATION_Blade_23.csv|
|                                   |                      (20.743 MB/s)|
+-----------------------------------------------------------------------+
+--------------------------------------+
|  Inner_Iter|    Cur_Time|    rms[Rho]|
+--------------------------------------+
|        3710|  0.0000e+00|   -6.830686|
|        3720|  0.0000e+00|   -6.816477|
|        3730|  0.0000e+00|   -6.824693|
|        3740|  0.0000e+00|   -6.845337|
|        3750|  0.0000e+00|   -6.800585|
+-----------------------------------------------------------------------+
|        File Writing Summary       |              Filename             |
+-----------------------------------------------------------------------+
|SU2 binary restart                 |restart_flow_databladeVALIDATION_Blade_23.dat|
|                                   |                     (11101.2 MB/s)|
|Paraview                           |volume_flow_databladeVALIDATION_Blade_23.vtu|
|                                   |                     (1045.57 MB/s)|
|Paraview surface                   |surface_flowdatabladeVALIDATION_Blade_23.vtu|
|                                   |                     (98.4748 MB/s)|
|SU2 ASCII restart                  |restart_flow_databladeVALIDATION_Blade_23.csv|
|                                   |                     (20.7744 MB/s)|
|CSV file                           |surface_flowdatabladeVALIDATION_Blade_23.csv|
|                                   |                     (21.2076 MB/s)|
+-----------------------------------------------------------------------+
+--------------------------------------+
|  Inner_Iter|    Cur_Time|    rms[Rho]|
+--------------------------------------+
|        3760|  0.0000e+00|   -6.818542|
|        3770|  0.0000e+00|   -6.846540|
|        3780|  0.0000e+00|   -6.855116|
|        3790|  0.0000e+00|   -6.897656|
|        3800|  0.0000e+00|   -6.897482|
+-----------------------------------------------------------------------+
|        File Writing Summary       |              Filename             |
+-----------------------------------------------------------------------+
|SU2 binary restart                 |restart_flow_databladeVALIDATION_Blade_23.dat|
|                                   |                     (12655.2 MB/s)|
|Paraview                           |volume_flow_databladeVALIDATION_Blade_23.vtu|
|                                   |                      (1067.3 MB/s)|
|Paraview surface                   |surface_flowdatabladeVALIDATION_Blade_23.vtu|
|                                   |                     (98.9477 MB/s)|
|SU2 ASCII restart                  |restart_flow_databladeVALIDATION_Blade_23.csv|
|                                   |                     (21.2453 MB/s)|
|CSV file                           |surface_flowdatabladeVALIDATION_Blade_23.csv|
|                                   |                     (19.5995 MB/s)|
+-----------------------------------------------------------------------+
+--------------------------------------+
|  Inner_Iter|    Cur_Time|    rms[Rho]|
+--------------------------------------+
|        3810|  0.0000e+00|   -6.865056|
|        3820|  0.0000e+00|   -6.883354|
|        3830|  0.0000e+00|   -6.880763|
|        3840|  0.0000e+00|   -6.900889|
|        3850|  0.0000e+00|   -6.907873|
+-----------------------------------------------------------------------+
|        File Writing Summary       |              Filename             |
+-----------------------------------------------------------------------+
|SU2 binary restart                 |restart_flow_databladeVALIDATION_Blade_23.dat|
|                                   |                     (10231.8 MB/s)|
|Paraview                           |volume_flow_databladeVALIDATION_Blade_23.vtu|
|                                   |                     (468.824 MB/s)|
|Paraview surface                   |surface_flowdatabladeVALIDATION_Blade_23.vtu|
|                                   |                     (17.2622 MB/s)|
|SU2 ASCII restart                  |restart_flow_databladeVALIDATION_Blade_23.csv|
|                                   |                     (20.5491 MB/s)|
|CSV file                           |surface_flowdatabladeVALIDATION_Blade_23.csv|
|                                   |                     (19.8006 MB/s)|
+-----------------------------------------------------------------------+
+--------------------------------------+
|  Inner_Iter|    Cur_Time|    rms[Rho]|
+--------------------------------------+
|        3860|  0.0000e+00|   -6.912462|
|        3870|  0.0000e+00|   -6.930393|
|        3880|  0.0000e+00|   -6.963181|
|        3889|  0.0000e+00|   -7.001163|

----------------------------- Solver Exit -------------------------------
All convergence criteria satisfied.
+-----------------------------------------------------------------------+
|      Convergence Field     |     Value    |   Criterion  |  Converged |
+-----------------------------------------------------------------------+
|                    rms[Rho]|      -7.00116|          < -7|         Yes|
+-----------------------------------------------------------------------+
-------------------------------------------------------------------------
+-----------------------------------------------------------------------+
|        File Writing Summary       |              Filename             |
+-----------------------------------------------------------------------+
|SU2 binary restart                 |restart_flow_databladeVALIDATION_Blade_23.dat|
|                                   |                     (10283.8 MB/s)|
|Paraview                           |volume_flow_databladeVALIDATION_Blade_23.vtu|
|                                   |                     (1024.13 MB/s)|
|Paraview surface                   |surface_flowdatabladeVALIDATION_Blade_23.vtu|
|                                   |                     (101.935 MB/s)|
|SU2 ASCII restart                  |restart_flow_databladeVALIDATION_Blade_23.csv|
|                                   |                     (20.8574 MB/s)|
|CSV file                           |surface_flowdatabladeVALIDATION_Blade_23.csv|
|                                   |                     (18.9683 MB/s)|
+-----------------------------------------------------------------------+

--------------------------- Finalizing Solver ---------------------------
Deleted CNumerics container.
Deleted CIntegration container.
Deleted CSolver container.
Deleted CIteration container.
Deleted CInterface container.
Deleted CGeometry container.
Deleted CFreeFormDefBox class.
Deleted CSurfaceMovement class.
Deleted CVolumetricMovement class.
Deleted CConfig container.
Deleted nInst container.
Deleted COutput class.
-------------------------------------------------------------------------


-------------------------- Performance Summary --------------------------
Simulation totals:
   Wall-clock time (hrs):    0.119135 |            Core-hrs:     1.42963
                   Cores:          12 |          DOFs/point:           5
             Points/core:     4849.75 |   Ghost points/core:         153
 Ghost/Owned Point Ratio:    0.031548 | 

Preprocessing phase:
       Preproc. Time (s):    0.437449 |   Preproc. Time (%):    0.101996

Compute phase:
        Compute Time (s):     426.191 |    Compute Time (%):     99.3713
         Iteration count:        3890 |         Avg. s/iter:    0.109561
     Core-s/iter/Mpoints:     21.9001 |           Mpoints/s:    0.547943

Output phase:
         Output Time (s):     2.25904 |     Output Time (%):     0.52672
            Output count:           1 |       Avg. s/output:     2.25904
 Restart Aggr. BW (MB/s):      907302 |           MB/s/core:     75608.5
-------------------------------------------------------------------------


------------------------- Exit Success (SU2_CFD) ------------------------

