
-------------------------------------------------------------------------
|    ___ _   _ ___                                                      |
|   / __| | | |_  )   Release 8.0.1 "Harrier"                           |
|   \__ \ |_| |/ /                                                      |
|   |___/\___//___|   Suite (Computational Fluid Dynamics Code)         |
|                                                                       |
-------------------------------------------------------------------------
| SU2 Project Website: https://su2code.github.io                        |
|                                                                       |
| The SU2 Project is maintained by the SU2 Foundation                   |
| (http://su2foundation.org)                                            |
-------------------------------------------------------------------------
| Copyright 2012-2024, SU2 Contributors                                 |
|                                                                       |
| SU2 is free software; you can redistribute it and/or                  |
| modify it under the terms of the GNU Lesser General Public            |
| License as published by the Free Software Foundation; either          |
| version 2.1 of the License, or (at your option) any later version.    |
|                                                                       |
| SU2 is distributed in the hope that it will be useful,                |
| but WITHOUT ANY WARRANTY; without even the implied warranty of        |
| MERCHANTABILITY or FITNESS FOR A PARTICULAR PURPOSE. See the GNU      |
| Lesser General Public License for more details.                       |
|                                                                       |
| You should have received a copy of the GNU Lesser General Public      |
| License along with SU2. If not, see <http://www.gnu.org/licenses/>.   |
-------------------------------------------------------------------------

Parsing config file for zone 0

----------------- Physical Case Definition ( Zone 0 ) -------------------
Compressible RANS equations.
Turbulence model: Spalart-Allmaras-noft2-BCM
Hybrid RANS/LES: No Hybrid RANS/LES
Mach number: 0.5.
Angle of attack (AoA): -40 deg, and angle of sideslip (AoS): 0 deg.
Reynolds number: 600000. Reference length 1.0014.
No restart solution, use the values at infinity (freestream).
Dimensional simulation.
The reference area will be computed using y(2D) or z(3D) projection.
The semi-span will be computed using the max y(3D) value.
The reference length is 1.0014 m.
Reference origin for moment evaluation is (0, 0, 0).
Surface(s) where the force coefficients are evaluated: blade1.

Surface(s) plotted in the output file: blade1.
Surface(s) to be analyzed in detail: inlet, outlet, blade1.
Input mesh file name: cascade2D_databladeVALIDATION_Blade_2.su2

--------------- Space Numerical Integration ( Zone 0 ) ------------------
Jameson-Schmidt-Turkel scheme (2nd order in space) for the flow inviscid terms.
JST viscous coefficients (2nd & 4th): 0.5, 0.02.
The method includes a grid stretching correction (p = 0.3).
Scalar upwind solver for the turbulence model.
First order integration in space.
Average of gradients with correction (viscous flow terms).
Average of gradients with correction (viscous turbulence terms).
Gradient for upwind reconstruction: inverse-distance weighted Least-Squares.
Gradient for viscous and source terms: inverse-distance weighted Least-Squares.

--------------- Time Numerical Integration  ( Zone 0 ) ------------------
Local time stepping (steady state simulation).
Euler implicit method for the flow equations.
FGMRES is used for solving the linear system.
Using a LU-SGS preconditioning.
Convergence criteria of the linear solver: 0.0001.
Max number of linear iterations: 10.
V Multigrid Cycle, with 3 multigrid levels.
Damping factor for the residual restriction: 0.75.
Damping factor for the correction prolongation: 0.75.
CFL adaptation. Factor down: 0.1, factor up: 1.2,
                lower limit: 0.1, upper limit: 100,
                acceptable linear residual: 0.001.
+-------------------------------------------+
|  MG Level| Presmooth|PostSmooth|CorrectSmo|
+-------------------------------------------+
|         0|         1|         0|         1|
|         1|         2|         2|         2|
|         2|         3|         3|         3|
|         3|         3|         0|         0|
+-------------------------------------------+
Courant-Friedrichs-Lewy number:       12
Euler implicit time integration for the turbulence model.

------------------ Convergence Criteria  ( Zone 0 ) ---------------------
Maximum number of solver subiterations: 7000.
Begin convergence monitoring at iteration 500.
Residual minimum value: 1e-7.
Cauchy series min. value: 1e-10.
Number of Cauchy elements: 100.
Begin windowed time average at iteration 0.

-------------------- Output Information ( Zone 0 ) ----------------------
File writing frequency: 
+------------------------------------+
|                     File| Frequency|
+------------------------------------+
|                  RESTART|        50|
|                 PARAVIEW|        50|
|         SURFACE_PARAVIEW|        50|
|                      CSV|        50|
|              SURFACE_CSV|        50|
+------------------------------------+
Writing the convergence history file every 1 inner iterations.
Writing the screen convergence history every 10 inner iterations.
The tabular file format is CSV (.csv).
Convergence history file name: history_databladeVALIDATION_Blade_2.
Forces breakdown file name: forces_breakdown.dat.
Surface file name: surface_flowdatabladeVALIDATION_Blade_2.
Volume file name: volume_flow_databladeVALIDATION_Blade_2.
Restart file name: restart_flow_databladeVALIDATION_Blade_2.dat.

------------- Config File Boundary Information ( Zone 0 ) ---------------
+-----------------------------------------------------------------------+
|                        Marker Type|                        Marker Name|
+-----------------------------------------------------------------------+
|                  Periodic boundary|               symmetricWallsBOTTOM|
|                                   |                  symmetricWallsTOP|
+-----------------------------------------------------------------------+
|                     Inlet boundary|                              inlet|
+-----------------------------------------------------------------------+
|                    Outlet boundary|                             outlet|
+-----------------------------------------------------------------------+
|                     Heat flux wall|                             blade1|
|                                   |                             blade2|
+-----------------------------------------------------------------------+

-------------------- Output Preprocessing ( Zone 0 ) --------------------
  Info: Ignoring the following screen output fields:
  LINSOL_ITER_TRANS, LINSOL_RESIDUAL_TRANS
Screen output fields: INNER_ITER, WALL_TIME, RMS_DENSITY
  Info: Ignoring the following history output groups:
  RMS_TKE, RMS_DISSIPATION
History output group(s): INNER_ITER, WALL_TIME, RMS_DENSITY, RMS_MOMENTUM-X, RMS_ENERGY, LINSOL, CFL_NUMBER, FLOW_COEFF_SURF, AERO_COEFF_SURF
Convergence field(s): RMS_DENSITY
Warning: No (valid) fields chosen for time convergence monitoring. Time convergence monitoring inactive.
Volume output fields: COORDINATES, SOLUTION, PRIMITIVE, RESIDUAL, TIMESTEP, MESH_QUALITY, VORTEX_IDENTIFICATION

------------------- Geometry Preprocessing ( Zone 0 ) -------------------
Two dimensional problem.
61946 grid points before partitioning.
93526 volume elements before partitioning.
5 surface markers.
27 boundary elements in index 0 (Marker = inlet).
331 boundary elements in index 1 (Marker = symmetricWallsBOTTOM).
331 boundary elements in index 2 (Marker = symmetricWallsTOP).
27 boundary elements in index 3 (Marker = outlet).
1186 boundary elements in index 4 (Marker = blade1).
Executing the partitioning functions.
Building the graph adjacency structure.
Calling ParMETIS... graph partitioning complete (1554 edge cuts).
Distributing ParMETIS coloring.
Rebalancing vertices.
Rebalancing volume element connectivity.
Rebalancing markers and surface elements.
63865 vertices including ghost points. 
95070 interior elements including halo cells. 
66257 triangles.
28813 quadrilaterals.
Establishing MPI communication patterns.
Setting point connectivity.
Renumbering points (Reverse Cuthill McKee Ordering).
Recomputing point connectivity.
Setting element connectivity.
Checking the numerical grid orientation.
All volume elements are correctly orientend.
There has been a re-orientation of 961 LINE surface elements.
Identifying edges and vertices.
Setting the control volume structure.
Area of the computational grid: 3.59802.
Searching for the closest normal neighbors to the surfaces.
Storing a mapping from global to local point index.
Compute the surface curvature.
Max K: 135.834. Mean K: 4.17038. Standard deviation K: 14.2496.
Checking for periodicity.
WARNING: Periodicity has been detected. Disabling multigrid. 
Computing mesh quality statistics for the dual control volumes.
+--------------------------------------------------------------+
|           Mesh Quality Metric|        Minimum|        Maximum|
+--------------------------------------------------------------+
|    Orthogonality Angle (deg.)|        46.0795|             90|
|     CV Face Area Aspect Ratio|        1.00011|        299.766|
|           CV Sub-Volume Ratio|              1|        30.5272|
+--------------------------------------------------------------+
Finding max control volume width.
Communicating number of neighbors.
Reference length = 1.02033 m.
Wetted area = 3.00145 m.
Area projection in the x-plane = 0.938596 m, y-plane = 1.02033 m.
Max. coordinate in the x-direction = 1.0133 m, y-direction = 0.616843 m.
Min. coordinate in the x-direction = -0.00703463 m, y-direction = -0.30317 m.
Matching the periodic boundary points for marker pair 1.
 Matched 664 points with a max distance of: 9.80968e-14.
Computing wall distances.

-------------------- Solver Preprocessing ( Zone 0 ) --------------------
Viscous flow: Computing pressure using the ideal gas law
based on the free-stream temperature and a density computed
from the Reynolds number.
Force coefficients computed using free-stream values.

-- Models:
+------------------------------------------------------------------------------+
|          Viscosity Model|        Conductivity Model|              Fluid Model|
+------------------------------------------------------------------------------+
|               SUTHERLAND|          CONSTANT_PRANDTL|                IDEAL_GAS|
+------------------------------------------------------------------------------+
-- Fluid properties:
+------------------------------------------------------------------------------+
|                  Name|    Dim. value|    Ref. value|      Unit|Non-dim. value|
+------------------------------------------------------------------------------+
|        Ref. Viscosity|     1.716e-05|             1|   N.s/m^2|     1.716e-05|
|      Sutherland Temp.|        273.15|             1|         K|        273.15|
|     Sutherland Const.|         110.4|             1|         K|         110.4|
+------------------------------------------------------------------------------+
|        Prandtl (Lam.)|             -|             -|         -|          0.72|
|       Prandtl (Turb.)|             -|             -|         -|           0.9|
+------------------------------------------------------------------------------+
|          Gas Constant|       287.058|             1|  N.m/kg.K|       287.058|
|      Spec. Heat Ratio|             -|             -|         -|           1.4|
+------------------------------------------------------------------------------+
-- Initial and free-stream conditions:
+------------------------------------------------------------------------------+
|                  Name|    Dim. value|    Ref. value|      Unit|Non-dim. value|
+------------------------------------------------------------------------------+
|       Static Pressure|       5486.16|             1|        Pa|       5486.16|
|               Density|     0.0637056|             1|    kg/m^3|     0.0637056|
|           Temperature|           300|             1|         K|           300|
|          Total Energy|        230364|             1|   m^2/s^2|        230364|
|            Velocity-X|       132.994|             1|       m/s|       132.994|
|            Velocity-Y|      -111.596|             1|       m/s|      -111.596|
|    Velocity Magnitude|       173.612|             1|       m/s|       173.612|
+------------------------------------------------------------------------------+
|             Viscosity|   1.84592e-05|             1|   N.s/m^2|   1.84592e-05|
|          Conductivity|             -|             1|   W/m^2.K|             -|
|     Turb. Kin. Energy|       55.3843|             1|   m^2/s^2|       55.3843|
|     Spec. Dissipation|    1.9114e+06|             1|       1/s|    1.9114e+06|
+------------------------------------------------------------------------------+
|           Mach Number|             -|             -|         -|           0.5|
|       Reynolds Number|             -|             -|         -|        600000|
+------------------------------------------------------------------------------+
Initialize Jacobian structure (Navier-Stokes). MG level: 0.
Initialize Jacobian structure (SA model).

------------------- Numerics Preprocessing ( Zone 0 ) -------------------

----------------- Integration Preprocessing ( Zone 0 ) ------------------

------------------- Iteration Preprocessing ( Zone 0 ) ------------------
Euler/Navier-Stokes/RANS fluid iteration.

------------------------------ Begin Solver -----------------------------

Simulation Run using the Single-zone Driver
WARNING: SU2 was not compiled for an AVX-capable architecture. Performance could be better,
         see https://su2code.github.io/docs_v7/Build-SU2-Linux-MacOS/#compiler-optimizations
+--------------------------------------+
|  Inner_Iter|   Time(sec)|    rms[Rho]|
+--------------------------------------+
|           0|  7.2315e-02|   -2.468070|
|          10|  6.1279e-02|   -3.112473|
|          20|  6.3063e-02|   -2.924324|
|          30|  6.3755e-02|   -2.960721|
|          40|  6.2710e-02|   -2.874757|
|          50|  6.3516e-02|   -2.864893|
+-----------------------------------------------------------------------+
|        File Writing Summary       |              Filename             |
+-----------------------------------------------------------------------+
|SU2 binary restart                 |restart_flow_databladeVALIDATION_Blade_2.dat|
|                                   |                     (13652.9 MB/s)|
|Paraview                           |volume_flow_databladeVALIDATION_Blade_2.vtu|
|                                   |                     (1014.29 MB/s)|
|Paraview surface                   |surface_flowdatabladeVALIDATION_Blade_2.vtu|
|                                   |                     (92.1477 MB/s)|
|SU2 ASCII restart                  |restart_flow_databladeVALIDATION_Blade_2.csv|
|                                   |                     (22.3739 MB/s)|
|CSV file                           |surface_flowdatabladeVALIDATION_Blade_2.csv|
|                                   |                     (21.4933 MB/s)|
+-----------------------------------------------------------------------+
+--------------------------------------+
|  Inner_Iter|   Time(sec)|    rms[Rho]|
+--------------------------------------+
|          60|  1.0106e-01|   -2.910801|
|          70|  9.5450e-02|   -2.989354|
|          80|  9.0915e-02|   -3.038020|
|          90|  8.8140e-02|   -2.975299|
|         100|  8.6378e-02|   -2.947447|
+-----------------------------------------------------------------------+
|        File Writing Summary       |              Filename             |
+-----------------------------------------------------------------------+
|SU2 binary restart                 |restart_flow_databladeVALIDATION_Blade_2.dat|
|                                   |                     (12564.9 MB/s)|
|Paraview                           |volume_flow_databladeVALIDATION_Blade_2.vtu|
|                                   |                      (960.38 MB/s)|
|Paraview surface                   |surface_flowdatabladeVALIDATION_Blade_2.vtu|
|                                   |                     (122.137 MB/s)|
|SU2 ASCII restart                  |restart_flow_databladeVALIDATION_Blade_2.csv|
|                                   |                     (21.9268 MB/s)|
|CSV file                           |surface_flowdatabladeVALIDATION_Blade_2.csv|
|                                   |                     (21.2202 MB/s)|
+-----------------------------------------------------------------------+
+--------------------------------------+
|  Inner_Iter|   Time(sec)|    rms[Rho]|
+--------------------------------------+
|         110|  1.0450e-01|   -3.075603|
|         120|  1.0082e-01|   -3.035127|
|         130|  9.8469e-02|   -2.916938|
|         140|  9.6142e-02|   -3.040771|
|         150|  9.3525e-02|   -3.118455|
+-----------------------------------------------------------------------+
|        File Writing Summary       |              Filename             |
+-----------------------------------------------------------------------+
|SU2 binary restart                 |restart_flow_databladeVALIDATION_Blade_2.dat|
|                                   |                     (12680.8 MB/s)|
|Paraview                           |volume_flow_databladeVALIDATION_Blade_2.vtu|
|                                   |                     (1102.91 MB/s)|
|Paraview surface                   |surface_flowdatabladeVALIDATION_Blade_2.vtu|
|                                   |                     (127.694 MB/s)|
|SU2 ASCII restart                  |restart_flow_databladeVALIDATION_Blade_2.csv|
|                                   |                     (21.6183 MB/s)|
|CSV file                           |surface_flowdatabladeVALIDATION_Blade_2.csv|
|                                   |                      (20.296 MB/s)|
+-----------------------------------------------------------------------+
+--------------------------------------+
|  Inner_Iter|   Time(sec)|    rms[Rho]|
+--------------------------------------+
|         160|  1.0591e-01|   -3.169547|
|         170|  1.0345e-01|   -3.176447|
|         180|  1.0113e-01|   -3.230124|
|         190|  9.8832e-02|   -3.251542|
|         200|  9.6981e-02|   -3.239047|
+-----------------------------------------------------------------------+
|        File Writing Summary       |              Filename             |
+-----------------------------------------------------------------------+
|SU2 binary restart                 |restart_flow_databladeVALIDATION_Blade_2.dat|
|                                   |                     (12476.8 MB/s)|
|Paraview                           |volume_flow_databladeVALIDATION_Blade_2.vtu|
|                                   |                     (1120.54 MB/s)|
|Paraview surface                   |surface_flowdatabladeVALIDATION_Blade_2.vtu|
|                                   |                     (128.579 MB/s)|
|SU2 ASCII restart                  |restart_flow_databladeVALIDATION_Blade_2.csv|
|                                   |                       (21.67 MB/s)|
|CSV file                           |surface_flowdatabladeVALIDATION_Blade_2.csv|
|                                   |                      (20.083 MB/s)|
+-----------------------------------------------------------------------+
+--------------------------------------+
|  Inner_Iter|   Time(sec)|    rms[Rho]|
+--------------------------------------+
|         210|  1.0648e-01|   -3.223181|
|         220|  1.0422e-01|   -3.293169|
|         230|  1.0223e-01|   -3.307001|
|         240|  1.0071e-01|   -3.272101|
|         250|  9.9367e-02|   -3.301378|
+-----------------------------------------------------------------------+
|        File Writing Summary       |              Filename             |
+-----------------------------------------------------------------------+
|SU2 binary restart                 |restart_flow_databladeVALIDATION_Blade_2.dat|
|                                   |                     (11137.1 MB/s)|
|Paraview                           |volume_flow_databladeVALIDATION_Blade_2.vtu|
|                                   |                     (935.571 MB/s)|
|Paraview surface                   |surface_flowdatabladeVALIDATION_Blade_2.vtu|
|                                   |                     (133.632 MB/s)|
|SU2 ASCII restart                  |restart_flow_databladeVALIDATION_Blade_2.csv|
|                                   |                      (22.237 MB/s)|
|CSV file                           |surface_flowdatabladeVALIDATION_Blade_2.csv|
|                                   |                     (20.9534 MB/s)|
+-----------------------------------------------------------------------+
+--------------------------------------+
|  Inner_Iter|   Time(sec)|    rms[Rho]|
+--------------------------------------+
|         260|  1.0622e-01|   -3.377920|
|         270|  1.0451e-01|   -3.351445|
|         280|  1.0311e-01|   -3.231088|
|         290|  1.0171e-01|   -3.301538|
|         300|  1.0044e-01|   -3.262810|
+-----------------------------------------------------------------------+
|        File Writing Summary       |              Filename             |
+-----------------------------------------------------------------------+
|SU2 binary restart                 |restart_flow_databladeVALIDATION_Blade_2.dat|
|                                   |                     (12901.7 MB/s)|
|Paraview                           |volume_flow_databladeVALIDATION_Blade_2.vtu|
|                                   |                     (1065.51 MB/s)|
|Paraview surface                   |surface_flowdatabladeVALIDATION_Blade_2.vtu|
|                                   |                     (129.407 MB/s)|
|SU2 ASCII restart                  |restart_flow_databladeVALIDATION_Blade_2.csv|
|                                   |                     (22.3972 MB/s)|
|CSV file                           |surface_flowdatabladeVALIDATION_Blade_2.csv|
|                                   |                     (20.9439 MB/s)|
+-----------------------------------------------------------------------+
+--------------------------------------+
|  Inner_Iter|   Time(sec)|    rms[Rho]|
+--------------------------------------+
|         310|  1.0650e-01|   -3.080617|
|         320|  1.0522e-01|   -3.106268|
|         330|  1.0380e-01|   -3.230088|
|         340|  1.0265e-01|   -3.149584|
|         350|  1.0183e-01|   -3.145879|
+-----------------------------------------------------------------------+
|        File Writing Summary       |              Filename             |
+-----------------------------------------------------------------------+
|SU2 binary restart                 |restart_flow_databladeVALIDATION_Blade_2.dat|
|                                   |                     (10604.5 MB/s)|
|Paraview                           |volume_flow_databladeVALIDATION_Blade_2.vtu|
|                                   |                     (991.905 MB/s)|
|Paraview surface                   |surface_flowdatabladeVALIDATION_Blade_2.vtu|
|                                   |                      (95.355 MB/s)|
|SU2 ASCII restart                  |restart_flow_databladeVALIDATION_Blade_2.csv|
|                                   |                     (21.7359 MB/s)|
|CSV file                           |surface_flowdatabladeVALIDATION_Blade_2.csv|
|                                   |                     (20.1785 MB/s)|
+-----------------------------------------------------------------------+
+--------------------------------------+
|  Inner_Iter|   Time(sec)|    rms[Rho]|
+--------------------------------------+
|         360|  1.0706e-01|   -3.405159|
|         370|  1.0585e-01|   -3.446109|
|         380|  1.0478e-01|   -3.367371|
|         390|  1.0386e-01|   -3.443587|
|         400|  1.0276e-01|   -3.542485|
+-----------------------------------------------------------------------+
|        File Writing Summary       |              Filename             |
+-----------------------------------------------------------------------+
|SU2 binary restart                 |restart_flow_databladeVALIDATION_Blade_2.dat|
|                                   |                     (12097.8 MB/s)|
|Paraview                           |volume_flow_databladeVALIDATION_Blade_2.vtu|
|                                   |                      (1081.3 MB/s)|
|Paraview surface                   |surface_flowdatabladeVALIDATION_Blade_2.vtu|
|                                   |                     (132.102 MB/s)|
|SU2 ASCII restart                  |restart_flow_databladeVALIDATION_Blade_2.csv|
|                                   |                     (21.9022 MB/s)|
|CSV file                           |surface_flowdatabladeVALIDATION_Blade_2.csv|
|                                   |                     (20.8822 MB/s)|
+-----------------------------------------------------------------------+
+--------------------------------------+
|  Inner_Iter|   Time(sec)|    rms[Rho]|
+--------------------------------------+
|         410|  1.0727e-01|   -3.486462|
|         420|  1.0633e-01|   -3.413653|
|         430|  1.0536e-01|   -3.555195|
|         440|  1.0434e-01|   -3.630774|
|         450|  1.0353e-01|   -3.539913|
+-----------------------------------------------------------------------+
|        File Writing Summary       |              Filename             |
+-----------------------------------------------------------------------+
|SU2 binary restart                 |restart_flow_databladeVALIDATION_Blade_2.dat|
|                                   |                     (10581.9 MB/s)|
|Paraview                           |volume_flow_databladeVALIDATION_Blade_2.vtu|
|                                   |                     (956.317 MB/s)|
|Paraview surface                   |surface_flowdatabladeVALIDATION_Blade_2.vtu|
|                                   |                     (99.6141 MB/s)|
|SU2 ASCII restart                  |restart_flow_databladeVALIDATION_Blade_2.csv|
|                                   |                     (22.4296 MB/s)|
|CSV file                           |surface_flowdatabladeVALIDATION_Blade_2.csv|
|                                   |                      (22.363 MB/s)|
+-----------------------------------------------------------------------+
+--------------------------------------+
|  Inner_Iter|   Time(sec)|    rms[Rho]|
+--------------------------------------+
|         460|  1.0767e-01|   -3.453484|
|         470|  1.0672e-01|   -3.588790|
|         480|  1.0581e-01|   -3.580277|
|         490|  1.0504e-01|   -3.442936|
|         500|  1.0435e-01|   -3.508966|
+-----------------------------------------------------------------------+
|        File Writing Summary       |              Filename             |
+-----------------------------------------------------------------------+
|SU2 binary restart                 |restart_flow_databladeVALIDATION_Blade_2.dat|
|                                   |                     (12680.8 MB/s)|
|Paraview                           |volume_flow_databladeVALIDATION_Blade_2.vtu|
|                                   |                     (985.888 MB/s)|
|Paraview surface                   |surface_flowdatabladeVALIDATION_Blade_2.vtu|
|                                   |                     (85.8477 MB/s)|
|SU2 ASCII restart                  |restart_flow_databladeVALIDATION_Blade_2.csv|
|                                   |                     (21.5281 MB/s)|
|CSV file                           |surface_flowdatabladeVALIDATION_Blade_2.csv|
|                                   |                     (20.4583 MB/s)|
+-----------------------------------------------------------------------+
+--------------------------------------+
|  Inner_Iter|   Time(sec)|    rms[Rho]|
+--------------------------------------+
|         510|  1.0820e-01|   -3.500907|
|         520|  1.0740e-01|   -3.565783|
|         530|  1.0685e-01|   -3.502343|
|         540|  1.0602e-01|   -3.708993|
|         550|  1.0525e-01|   -3.565358|
+-----------------------------------------------------------------------+
|        File Writing Summary       |              Filename             |
+-----------------------------------------------------------------------+
|SU2 binary restart                 |restart_flow_databladeVALIDATION_Blade_2.dat|
|                                   |                     (12276.5 MB/s)|
|Paraview                           |volume_flow_databladeVALIDATION_Blade_2.vtu|
|                                   |                     (1083.83 MB/s)|
|Paraview surface                   |surface_flowdatabladeVALIDATION_Blade_2.vtu|
|                                   |                     (103.595 MB/s)|
|SU2 ASCII restart                  |restart_flow_databladeVALIDATION_Blade_2.csv|
|                                   |                     (22.1719 MB/s)|
|CSV file                           |surface_flowdatabladeVALIDATION_Blade_2.csv|
|                                   |                     (21.9032 MB/s)|
+-----------------------------------------------------------------------+
+--------------------------------------+
|  Inner_Iter|   Time(sec)|    rms[Rho]|
+--------------------------------------+
|         560|  1.0861e-01|   -3.604195|
|         570|  1.0777e-01|   -3.744716|
|         580|  1.0701e-01|   -3.617256|
|         590|  1.0637e-01|   -3.558709|
|         600|  1.0567e-01|   -3.673944|
+-----------------------------------------------------------------------+
|        File Writing Summary       |              Filename             |
+-----------------------------------------------------------------------+
|SU2 binary restart                 |restart_flow_databladeVALIDATION_Blade_2.dat|
|                                   |                     (12913.9 MB/s)|
|Paraview                           |volume_flow_databladeVALIDATION_Blade_2.vtu|
|                                   |                     (1190.93 MB/s)|
|Paraview surface                   |surface_flowdatabladeVALIDATION_Blade_2.vtu|
|                                   |                     (103.236 MB/s)|
|SU2 ASCII restart                  |restart_flow_databladeVALIDATION_Blade_2.csv|
|                                   |                     (21.8975 MB/s)|
|CSV file                           |surface_flowdatabladeVALIDATION_Blade_2.csv|
|                                   |                     (20.0916 MB/s)|
+-----------------------------------------------------------------------+
+--------------------------------------+
|  Inner_Iter|   Time(sec)|    rms[Rho]|
+--------------------------------------+
|         610|  1.0866e-01|   -3.746046|
|         620|  1.0792e-01|   -3.608650|
|         630|  1.0731e-01|   -3.488506|
|         640|  1.0659e-01|   -3.640733|
|         650|  1.0590e-01|   -3.674178|
+-----------------------------------------------------------------------+
|        File Writing Summary       |              Filename             |
+-----------------------------------------------------------------------+
|SU2 binary restart                 |restart_flow_databladeVALIDATION_Blade_2.dat|
|                                   |                     (955.969 MB/s)|
|Paraview                           |volume_flow_databladeVALIDATION_Blade_2.vtu|
|                                   |                     (1105.69 MB/s)|
|Paraview surface                   |surface_flowdatabladeVALIDATION_Blade_2.vtu|
|                                   |                     (97.1259 MB/s)|
|SU2 ASCII restart                  |restart_flow_databladeVALIDATION_Blade_2.csv|
|                                   |                      (22.092 MB/s)|
|CSV file                           |surface_flowdatabladeVALIDATION_Blade_2.csv|
|                                   |                     (21.4176 MB/s)|
+-----------------------------------------------------------------------+
+--------------------------------------+
|  Inner_Iter|   Time(sec)|    rms[Rho]|
+--------------------------------------+
|         660|  1.0876e-01|   -3.533974|
|         670|  1.0818e-01|   -3.571617|
|         680|  1.0744e-01|   -3.761759|
|         690|  1.0680e-01|   -3.670443|
|         700|  1.0628e-01|   -3.533051|
+-----------------------------------------------------------------------+
|        File Writing Summary       |              Filename             |
+-----------------------------------------------------------------------+
|SU2 binary restart                 |restart_flow_databladeVALIDATION_Blade_2.dat|
|                                   |                     (12483.4 MB/s)|
|Paraview                           |volume_flow_databladeVALIDATION_Blade_2.vtu|
|                                   |                     (1016.68 MB/s)|
|Paraview surface                   |surface_flowdatabladeVALIDATION_Blade_2.vtu|
|                                   |                     (96.8217 MB/s)|
|SU2 ASCII restart                  |restart_flow_databladeVALIDATION_Blade_2.csv|
|                                   |                     (21.6111 MB/s)|
|CSV file                           |surface_flowdatabladeVALIDATION_Blade_2.csv|
|                                   |                     (22.1216 MB/s)|
+-----------------------------------------------------------------------+
+--------------------------------------+
|  Inner_Iter|   Time(sec)|    rms[Rho]|
+--------------------------------------+
|         710|  1.0897e-01|   -3.699561|
|         720|  1.0826e-01|   -3.839474|
|         730|  1.0774e-01|   -3.646271|
|         740|  1.0721e-01|   -3.727169|
|         750|  1.0657e-01|   -3.900765|
+-----------------------------------------------------------------------+
|        File Writing Summary       |              Filename             |
+-----------------------------------------------------------------------+
|SU2 binary restart                 |restart_flow_databladeVALIDATION_Blade_2.dat|
|                                   |                     (12748.9 MB/s)|
|Paraview                           |volume_flow_databladeVALIDATION_Blade_2.vtu|
|                                   |                     (1105.05 MB/s)|
|Paraview surface                   |surface_flowdatabladeVALIDATION_Blade_2.vtu|
|                                   |                     (101.926 MB/s)|
|SU2 ASCII restart                  |restart_flow_databladeVALIDATION_Blade_2.csv|
|                                   |                     (22.3017 MB/s)|
|CSV file                           |surface_flowdatabladeVALIDATION_Blade_2.csv|
|                                   |                     (21.9876 MB/s)|
+-----------------------------------------------------------------------+
+--------------------------------------+
|  Inner_Iter|   Time(sec)|    rms[Rho]|
+--------------------------------------+
|         760|  1.0894e-01|   -3.798015|
|         770|  1.0843e-01|   -3.654830|
|         780|  1.0789e-01|   -3.825671|
|         790|  1.0731e-01|   -3.911842|
|         800|  1.0678e-01|   -3.859691|
+-----------------------------------------------------------------------+
|        File Writing Summary       |              Filename             |
+-----------------------------------------------------------------------+
|SU2 binary restart                 |restart_flow_databladeVALIDATION_Blade_2.dat|
|                                   |                       (12538 MB/s)|
|Paraview                           |volume_flow_databladeVALIDATION_Blade_2.vtu|
|                                   |                     (1044.84 MB/s)|
|Paraview surface                   |surface_flowdatabladeVALIDATION_Blade_2.vtu|
|                                   |                     (100.482 MB/s)|
|SU2 ASCII restart                  |restart_flow_databladeVALIDATION_Blade_2.csv|
|                                   |                     (22.2114 MB/s)|
|CSV file                           |surface_flowdatabladeVALIDATION_Blade_2.csv|
|                                   |                     (21.7303 MB/s)|
+-----------------------------------------------------------------------+
+--------------------------------------+
|  Inner_Iter|   Time(sec)|    rms[Rho]|
+--------------------------------------+
|         810|  1.0915e-01|   -3.780425|
|         820|  1.0859e-01|   -3.988082|
|         830|  1.0803e-01|   -4.029442|
|         840|  1.0755e-01|   -3.927850|
|         850|  1.0711e-01|   -3.992614|
+-----------------------------------------------------------------------+
|        File Writing Summary       |              Filename             |
+-----------------------------------------------------------------------+
|SU2 binary restart                 |restart_flow_databladeVALIDATION_Blade_2.dat|
|                                   |                     (13005.2 MB/s)|
|Paraview                           |volume_flow_databladeVALIDATION_Blade_2.vtu|
|                                   |                     (1065.94 MB/s)|
|Paraview surface                   |surface_flowdatabladeVALIDATION_Blade_2.vtu|
|                                   |                     (103.236 MB/s)|
|SU2 ASCII restart                  |restart_flow_databladeVALIDATION_Blade_2.csv|
|                                   |                     (21.9358 MB/s)|
|CSV file                           |surface_flowdatabladeVALIDATION_Blade_2.csv|
|                                   |                      (20.846 MB/s)|
+-----------------------------------------------------------------------+
+--------------------------------------+
|  Inner_Iter|   Time(sec)|    rms[Rho]|
+--------------------------------------+
|         860|  1.0919e-01|   -4.138852|
|         870|  1.0863e-01|   -4.189230|
|         880|  1.0813e-01|   -4.109696|
|         890|  1.0767e-01|   -4.119986|
|         900|  1.0716e-01|   -4.176108|
+-----------------------------------------------------------------------+
|        File Writing Summary       |              Filename             |
+-----------------------------------------------------------------------+
|SU2 binary restart                 |restart_flow_databladeVALIDATION_Blade_2.dat|
|                                   |                     (15194.1 MB/s)|
|Paraview                           |volume_flow_databladeVALIDATION_Blade_2.vtu|
|                                   |                     (1006.87 MB/s)|
|Paraview surface                   |surface_flowdatabladeVALIDATION_Blade_2.vtu|
|                                   |                     (92.3454 MB/s)|
|SU2 ASCII restart                  |restart_flow_databladeVALIDATION_Blade_2.csv|
|                                   |                     (22.5198 MB/s)|
|CSV file                           |surface_flowdatabladeVALIDATION_Blade_2.csv|
|                                   |                     (20.1351 MB/s)|
+-----------------------------------------------------------------------+
+--------------------------------------+
|  Inner_Iter|   Time(sec)|    rms[Rho]|
+--------------------------------------+
|         910|  1.0912e-01|   -4.102640|
|         920|  1.0873e-01|   -4.090683|
|         930|  1.0820e-01|   -4.191251|
|         940|  1.0771e-01|   -4.191066|
|         950|  1.0728e-01|   -4.180488|
+-----------------------------------------------------------------------+
|        File Writing Summary       |              Filename             |
+-----------------------------------------------------------------------+
|SU2 binary restart                 |restart_flow_databladeVALIDATION_Blade_2.dat|
|                                   |                     (10547.8 MB/s)|
|Paraview                           |volume_flow_databladeVALIDATION_Blade_2.vtu|
|                                   |                     (959.159 MB/s)|
|Paraview surface                   |surface_flowdatabladeVALIDATION_Blade_2.vtu|
|                                   |                     (98.0264 MB/s)|
|SU2 ASCII restart                  |restart_flow_databladeVALIDATION_Blade_2.csv|
|                                   |                     (22.1022 MB/s)|
|CSV file                           |surface_flowdatabladeVALIDATION_Blade_2.csv|
|                                   |                     (21.3189 MB/s)|
+-----------------------------------------------------------------------+
+--------------------------------------+
|  Inner_Iter|   Time(sec)|    rms[Rho]|
+--------------------------------------+
|         960|  1.0921e-01|   -4.279529|
|         970|  1.0869e-01|   -4.354302|
|         980|  1.0828e-01|   -4.176902|
|         990|  1.0788e-01|   -4.261325|
|        1000|  1.0741e-01|   -4.422438|
+-----------------------------------------------------------------------+
|        File Writing Summary       |              Filename             |
+-----------------------------------------------------------------------+
|SU2 binary restart                 |restart_flow_databladeVALIDATION_Blade_2.dat|
|                                   |                     (12208.8 MB/s)|
|Paraview                           |volume_flow_databladeVALIDATION_Blade_2.vtu|
|                                   |                     (1063.29 MB/s)|
|Paraview surface                   |surface_flowdatabladeVALIDATION_Blade_2.vtu|
|                                   |                     (81.9658 MB/s)|
|SU2 ASCII restart                  |restart_flow_databladeVALIDATION_Blade_2.csv|
|                                   |                     (21.6761 MB/s)|
|CSV file                           |surface_flowdatabladeVALIDATION_Blade_2.csv|
|                                   |                     (19.5843 MB/s)|
+-----------------------------------------------------------------------+
+--------------------------------------+
|  Inner_Iter|   Time(sec)|    rms[Rho]|
+--------------------------------------+
|        1010|  1.0921e-01|   -4.387215|
|        1020|  1.0881e-01|   -4.167184|
|        1030|  1.0840e-01|   -4.301189|
|        1040|  1.0791e-01|   -4.477570|
|        1050|  1.0749e-01|   -4.354340|
+-----------------------------------------------------------------------+
|        File Writing Summary       |              Filename             |
+-----------------------------------------------------------------------+
|SU2 binary restart                 |restart_flow_databladeVALIDATION_Blade_2.dat|
|                                   |                     (13189.7 MB/s)|
|Paraview                           |volume_flow_databladeVALIDATION_Blade_2.vtu|
|                                   |                     (1176.66 MB/s)|
|Paraview surface                   |surface_flowdatabladeVALIDATION_Blade_2.vtu|
|                                   |                     (138.499 MB/s)|
|SU2 ASCII restart                  |restart_flow_databladeVALIDATION_Blade_2.csv|
|                                   |                     (21.5232 MB/s)|
|CSV file                           |surface_flowdatabladeVALIDATION_Blade_2.csv|
|                                   |                     (18.2925 MB/s)|
+-----------------------------------------------------------------------+
+--------------------------------------+
|  Inner_Iter|   Time(sec)|    rms[Rho]|
+--------------------------------------+
|        1060|  1.0953e-01|   -4.257182|
|        1070|  1.0920e-01|   -4.509864|
|        1080|  1.0886e-01|   -4.461429|
|        1090|  1.0867e-01|   -4.262429|
|        1100|  1.0839e-01|   -4.484778|
+-----------------------------------------------------------------------+
|        File Writing Summary       |              Filename             |
+-----------------------------------------------------------------------+
|SU2 binary restart                 |restart_flow_databladeVALIDATION_Blade_2.dat|
|                                   |                     (11071.5 MB/s)|
|Paraview                           |volume_flow_databladeVALIDATION_Blade_2.vtu|
|                                   |                     (913.056 MB/s)|
|Paraview surface                   |surface_flowdatabladeVALIDATION_Blade_2.vtu|
|                                   |                     (98.6925 MB/s)|
|SU2 ASCII restart                  |restart_flow_databladeVALIDATION_Blade_2.csv|
|                                   |                     (20.6228 MB/s)|
|CSV file                           |surface_flowdatabladeVALIDATION_Blade_2.csv|
|                                   |                     (19.7714 MB/s)|
+-----------------------------------------------------------------------+
+--------------------------------------+
|  Inner_Iter|   Time(sec)|    rms[Rho]|
+--------------------------------------+
|        1110|  1.1019e-01|   -4.556798|
|        1120|  1.0980e-01|   -4.373036|
|        1130|  1.0944e-01|   -4.342506|
|        1140|  1.0903e-01|   -4.555368|
|        1150|  1.0865e-01|   -4.466589|
+-----------------------------------------------------------------------+
|        File Writing Summary       |              Filename             |
+-----------------------------------------------------------------------+
|SU2 binary restart                 |restart_flow_databladeVALIDATION_Blade_2.dat|
|                                   |                       (12735 MB/s)|
|Paraview                           |volume_flow_databladeVALIDATION_Blade_2.vtu|
|                                   |                     (1075.48 MB/s)|
|Paraview surface                   |surface_flowdatabladeVALIDATION_Blade_2.vtu|
|                                   |                     (96.2073 MB/s)|
|SU2 ASCII restart                  |restart_flow_databladeVALIDATION_Blade_2.csv|
|                                   |                     (21.8645 MB/s)|
|CSV file                           |surface_flowdatabladeVALIDATION_Blade_2.csv|
|                                   |                     (21.2373 MB/s)|
+-----------------------------------------------------------------------+
+--------------------------------------+
|  Inner_Iter|   Time(sec)|    rms[Rho]|
+--------------------------------------+
|        1160|  1.1026e-01|   -4.389694|
|        1170|  1.0986e-01|   -4.561788|
|        1180|  1.0945e-01|   -4.668245|
|        1190|  1.0906e-01|   -4.586902|
|        1200|  1.0871e-01|   -4.562047|
+-----------------------------------------------------------------------+
|        File Writing Summary       |              Filename             |
+-----------------------------------------------------------------------+
|SU2 binary restart                 |restart_flow_databladeVALIDATION_Blade_2.dat|
|                                   |                     (12701.4 MB/s)|
|Paraview                           |volume_flow_databladeVALIDATION_Blade_2.vtu|
|                                   |                     (1020.77 MB/s)|
|Paraview surface                   |surface_flowdatabladeVALIDATION_Blade_2.vtu|
|                                   |                     (102.997 MB/s)|
|SU2 ASCII restart                  |restart_flow_databladeVALIDATION_Blade_2.csv|
|                                   |                     (21.6829 MB/s)|
|CSV file                           |surface_flowdatabladeVALIDATION_Blade_2.csv|
|                                   |                     (21.3687 MB/s)|
+-----------------------------------------------------------------------+
+--------------------------------------+
|  Inner_Iter|   Time(sec)|    rms[Rho]|
+--------------------------------------+
|        1210|  1.1022e-01|   -4.722004|
|        1220|  1.0982e-01|   -4.750152|
|        1230|  1.0945e-01|   -4.688487|
|        1240|  1.0913e-01|   -4.733015|
|        1250|  1.0876e-01|   -4.881585|
+-----------------------------------------------------------------------+
|        File Writing Summary       |              Filename             |
+-----------------------------------------------------------------------+
|SU2 binary restart                 |restart_flow_databladeVALIDATION_Blade_2.dat|
|                                   |                     (15668.2 MB/s)|
|Paraview                           |volume_flow_databladeVALIDATION_Blade_2.vtu|
|                                   |                     (888.265 MB/s)|
|Paraview surface                   |surface_flowdatabladeVALIDATION_Blade_2.vtu|
|                                   |                     (97.6017 MB/s)|
|SU2 ASCII restart                  |restart_flow_databladeVALIDATION_Blade_2.csv|
|                                   |                     (21.8355 MB/s)|
|CSV file                           |surface_flowdatabladeVALIDATION_Blade_2.csv|
|                                   |                     (22.7483 MB/s)|
+-----------------------------------------------------------------------+
+--------------------------------------+
|  Inner_Iter|   Time(sec)|    rms[Rho]|
+--------------------------------------+
|        1260|  1.1018e-01|   -4.853854|
|        1270|  1.0985e-01|   -4.752747|
|        1280|  1.0950e-01|   -4.880614|
|        1290|  1.0919e-01|   -4.893794|
|        1300|  1.0886e-01|   -4.919854|
+-----------------------------------------------------------------------+
|        File Writing Summary       |              Filename             |
+-----------------------------------------------------------------------+
|SU2 binary restart                 |restart_flow_databladeVALIDATION_Blade_2.dat|
|                                   |                     (12931.2 MB/s)|
|Paraview                           |volume_flow_databladeVALIDATION_Blade_2.vtu|
|                                   |                     (1080.27 MB/s)|
|Paraview surface                   |surface_flowdatabladeVALIDATION_Blade_2.vtu|
|                                   |                     (103.912 MB/s)|
|SU2 ASCII restart                  |restart_flow_databladeVALIDATION_Blade_2.csv|
|                                   |                     (22.1238 MB/s)|
|CSV file                           |surface_flowdatabladeVALIDATION_Blade_2.csv|
|                                   |                     (22.6507 MB/s)|
+-----------------------------------------------------------------------+
+--------------------------------------+
|  Inner_Iter|   Time(sec)|    rms[Rho]|
+--------------------------------------+
|        1310|  1.1019e-01|   -5.009526|
|        1320|  1.0984e-01|   -4.908099|
|        1330|  1.0956e-01|   -4.844723|
|        1340|  1.0919e-01|   -5.043469|
|        1350|  1.0883e-01|   -5.044062|
+-----------------------------------------------------------------------+
|        File Writing Summary       |              Filename             |
+-----------------------------------------------------------------------+
|SU2 binary restart                 |restart_flow_databladeVALIDATION_Blade_2.dat|
|                                   |                     (12859.1 MB/s)|
|Paraview                           |volume_flow_databladeVALIDATION_Blade_2.vtu|
|                                   |                     (1077.38 MB/s)|
|Paraview surface                   |surface_flowdatabladeVALIDATION_Blade_2.vtu|
|                                   |                     (106.845 MB/s)|
|SU2 ASCII restart                  |restart_flow_databladeVALIDATION_Blade_2.csv|
|                                   |                     (21.8103 MB/s)|
|CSV file                           |surface_flowdatabladeVALIDATION_Blade_2.csv|
|                                   |                     (21.9742 MB/s)|
+-----------------------------------------------------------------------+
+--------------------------------------+
|  Inner_Iter|   Time(sec)|    rms[Rho]|
+--------------------------------------+
|        1360|  1.1021e-01|   -4.909866|
|        1370|  1.0992e-01|   -4.955628|
|        1380|  1.0954e-01|   -5.081891|
|        1390|  1.0920e-01|   -5.088409|
|        1400|  1.0888e-01|   -5.036674|
+-----------------------------------------------------------------------+
|        File Writing Summary       |              Filename             |
+-----------------------------------------------------------------------+
|SU2 binary restart                 |restart_flow_databladeVALIDATION_Blade_2.dat|
|                                   |                     (12580.4 MB/s)|
|Paraview                           |volume_flow_databladeVALIDATION_Blade_2.vtu|
|                                   |                     (1018.74 MB/s)|
|Paraview surface                   |surface_flowdatabladeVALIDATION_Blade_2.vtu|
|                                   |                      (93.932 MB/s)|
|SU2 ASCII restart                  |restart_flow_databladeVALIDATION_Blade_2.csv|
|                                   |                     (21.9605 MB/s)|
|CSV file                           |surface_flowdatabladeVALIDATION_Blade_2.csv|
|                                   |                     (20.5918 MB/s)|
+-----------------------------------------------------------------------+
+--------------------------------------+
|  Inner_Iter|   Time(sec)|    rms[Rho]|
+--------------------------------------+
|        1410|  1.1019e-01|   -5.063003|
|        1420|  1.0983e-01|   -5.137236|
|        1430|  1.0954e-01|   -5.086557|
|        1440|  1.0926e-01|   -5.149303|
|        1450|  1.0890e-01|   -5.227169|
+-----------------------------------------------------------------------+
|        File Writing Summary       |              Filename             |
+-----------------------------------------------------------------------+
|SU2 binary restart                 |restart_flow_databladeVALIDATION_Blade_2.dat|
|                                   |                     (12064.8 MB/s)|
|Paraview                           |volume_flow_databladeVALIDATION_Blade_2.vtu|
|                                   |                     (1037.41 MB/s)|
|Paraview surface                   |surface_flowdatabladeVALIDATION_Blade_2.vtu|
|                                   |                     (98.8543 MB/s)|
|SU2 ASCII restart                  |restart_flow_databladeVALIDATION_Blade_2.csv|
|                                   |                     (21.6421 MB/s)|
|CSV file                           |surface_flowdatabladeVALIDATION_Blade_2.csv|
|                                   |                     (22.3438 MB/s)|
+-----------------------------------------------------------------------+
+--------------------------------------+
|  Inner_Iter|   Time(sec)|    rms[Rho]|
+--------------------------------------+
|        1460|  1.1018e-01|   -5.174074|
|        1470|  1.0993e-01|   -5.075256|
|        1480|  1.0961e-01|   -5.208449|
|        1490|  1.0930e-01|   -5.163450|
|        1500|  1.0903e-01|   -5.155322|
+-----------------------------------------------------------------------+
|        File Writing Summary       |              Filename             |
+-----------------------------------------------------------------------+
|SU2 binary restart                 |restart_flow_databladeVALIDATION_Blade_2.dat|
|                                   |                       (12373 MB/s)|
|Paraview                           |volume_flow_databladeVALIDATION_Blade_2.vtu|
|                                   |                     (1052.27 MB/s)|
|Paraview surface                   |surface_flowdatabladeVALIDATION_Blade_2.vtu|
|                                   |                     (106.836 MB/s)|
|SU2 ASCII restart                  |restart_flow_databladeVALIDATION_Blade_2.csv|
|                                   |                     (21.3784 MB/s)|
|CSV file                           |surface_flowdatabladeVALIDATION_Blade_2.csv|
|                                   |                     (19.4135 MB/s)|
+-----------------------------------------------------------------------+
+--------------------------------------+
|  Inner_Iter|   Time(sec)|    rms[Rho]|
+--------------------------------------+
|        1510|  1.1025e-01|   -5.231652|
|        1520|  1.0992e-01|   -5.228849|
|        1530|  1.0963e-01|   -5.154029|
|        1540|  1.0935e-01|   -5.204671|
|        1550|  1.0905e-01|   -5.297858|
+-----------------------------------------------------------------------+
|        File Writing Summary       |              Filename             |
+-----------------------------------------------------------------------+
|SU2 binary restart                 |restart_flow_databladeVALIDATION_Blade_2.dat|
|                                   |                     (8962.35 MB/s)|
|Paraview                           |volume_flow_databladeVALIDATION_Blade_2.vtu|
|                                   |                     (883.744 MB/s)|
|Paraview surface                   |surface_flowdatabladeVALIDATION_Blade_2.vtu|
|                                   |                     (78.8971 MB/s)|
|SU2 ASCII restart                  |restart_flow_databladeVALIDATION_Blade_2.csv|
|                                   |                     (21.8124 MB/s)|
|CSV file                           |surface_flowdatabladeVALIDATION_Blade_2.csv|
|                                   |                     (21.9196 MB/s)|
+-----------------------------------------------------------------------+
+--------------------------------------+
|  Inner_Iter|   Time(sec)|    rms[Rho]|
+--------------------------------------+
|        1560|  1.1021e-01|   -5.242268|
|        1570|  1.0995e-01|   -5.135455|
|        1580|  1.0964e-01|   -5.223935|
|        1590|  1.0934e-01|   -5.213088|
|        1600|  1.0907e-01|   -5.156968|
+-----------------------------------------------------------------------+
|        File Writing Summary       |              Filename             |
+-----------------------------------------------------------------------+
|SU2 binary restart                 |restart_flow_databladeVALIDATION_Blade_2.dat|
|                                   |                     (12623.1 MB/s)|
|Paraview                           |volume_flow_databladeVALIDATION_Blade_2.vtu|
|                                   |                     (1129.86 MB/s)|
|Paraview surface                   |surface_flowdatabladeVALIDATION_Blade_2.vtu|
|                                   |                     (95.5629 MB/s)|
|SU2 ASCII restart                  |restart_flow_databladeVALIDATION_Blade_2.csv|
|                                   |                     (21.6802 MB/s)|
|CSV file                           |surface_flowdatabladeVALIDATION_Blade_2.csv|
|                                   |                     (22.0903 MB/s)|
+-----------------------------------------------------------------------+
+--------------------------------------+
|  Inner_Iter|   Time(sec)|    rms[Rho]|
+--------------------------------------+
|        1610|  1.1023e-01|   -5.212843|
|        1620|  1.0991e-01|   -5.308188|
|        1630|  1.0961e-01|   -5.301863|
|        1640|  1.0936e-01|   -5.247990|
|        1650|  1.0909e-01|   -5.317625|
+-----------------------------------------------------------------------+
|        File Writing Summary       |              Filename             |
+-----------------------------------------------------------------------+
|SU2 binary restart                 |restart_flow_databladeVALIDATION_Blade_2.dat|
|                                   |                     (12279.3 MB/s)|
|Paraview                           |volume_flow_databladeVALIDATION_Blade_2.vtu|
|                                   |                     (1120.58 MB/s)|
|Paraview surface                   |surface_flowdatabladeVALIDATION_Blade_2.vtu|
|                                   |                         (106 MB/s)|
|SU2 ASCII restart                  |restart_flow_databladeVALIDATION_Blade_2.csv|
|                                   |                     (22.2615 MB/s)|
|CSV file                           |surface_flowdatabladeVALIDATION_Blade_2.csv|
|                                   |                     (22.8431 MB/s)|
+-----------------------------------------------------------------------+
+--------------------------------------+
|  Inner_Iter|   Time(sec)|    rms[Rho]|
+--------------------------------------+
|        1660|  1.1026e-01|   -5.284483|
|        1670|  1.1007e-01|   -5.272044|
|        1680|  1.0978e-01|   -5.352597|
|        1690|  1.0949e-01|   -5.352780|
|        1700|  1.0925e-01|   -5.286577|
+-----------------------------------------------------------------------+
|        File Writing Summary       |              Filename             |
+-----------------------------------------------------------------------+
|SU2 binary restart                 |restart_flow_databladeVALIDATION_Blade_2.dat|
|                                   |                       (13122 MB/s)|
|Paraview                           |volume_flow_databladeVALIDATION_Blade_2.vtu|
|                                   |                     (1072.62 MB/s)|
|Paraview surface                   |surface_flowdatabladeVALIDATION_Blade_2.vtu|
|                                   |                      (104.38 MB/s)|
|SU2 ASCII restart                  |restart_flow_databladeVALIDATION_Blade_2.csv|
|                                   |                     (21.6968 MB/s)|
|CSV file                           |surface_flowdatabladeVALIDATION_Blade_2.csv|
|                                   |                      (21.311 MB/s)|
+-----------------------------------------------------------------------+
+--------------------------------------+
|  Inner_Iter|   Time(sec)|    rms[Rho]|
+--------------------------------------+
|        1710|  1.1034e-01|   -5.367141|
|        1720|  1.1003e-01|   -5.429737|
|        1730|  1.0977e-01|   -5.408367|
|        1740|  1.0955e-01|   -5.383436|
|        1750|  1.0937e-01|   -5.401595|
+-----------------------------------------------------------------------+
|        File Writing Summary       |              Filename             |
+-----------------------------------------------------------------------+
|SU2 binary restart                 |restart_flow_databladeVALIDATION_Blade_2.dat|
|                                   |                     (10876.6 MB/s)|
|Paraview                           |volume_flow_databladeVALIDATION_Blade_2.vtu|
|                                   |                     (1076.48 MB/s)|
|Paraview surface                   |surface_flowdatabladeVALIDATION_Blade_2.vtu|
|                                   |                     (93.2923 MB/s)|
|SU2 ASCII restart                  |restart_flow_databladeVALIDATION_Blade_2.csv|
|                                   |                     (21.7971 MB/s)|
|CSV file                           |surface_flowdatabladeVALIDATION_Blade_2.csv|
|                                   |                     (20.7016 MB/s)|
+-----------------------------------------------------------------------+
+--------------------------------------+
|  Inner_Iter|   Time(sec)|    rms[Rho]|
+--------------------------------------+
|        1760|  1.1050e-01|   -5.386939|
|        1770|  1.1025e-01|   -5.439415|
|        1780|  1.1002e-01|   -5.393809|
|        1790|  1.0979e-01|   -5.395126|
|        1800|  1.0951e-01|   -5.449721|
+-----------------------------------------------------------------------+
|        File Writing Summary       |              Filename             |
+-----------------------------------------------------------------------+
|SU2 binary restart                 |restart_flow_databladeVALIDATION_Blade_2.dat|
|                                   |                     (12169.7 MB/s)|
|Paraview                           |volume_flow_databladeVALIDATION_Blade_2.vtu|
|                                   |                      (1065.3 MB/s)|
|Paraview surface                   |surface_flowdatabladeVALIDATION_Blade_2.vtu|
|                                   |                     (96.0234 MB/s)|
|SU2 ASCII restart                  |restart_flow_databladeVALIDATION_Blade_2.csv|
|                                   |                     (21.7476 MB/s)|
|CSV file                           |surface_flowdatabladeVALIDATION_Blade_2.csv|
|                                   |                     (21.4885 MB/s)|
+-----------------------------------------------------------------------+
+--------------------------------------+
|  Inner_Iter|   Time(sec)|    rms[Rho]|
+--------------------------------------+
|        1810|  1.1060e-01|   -5.397130|
|        1820|  1.1042e-01|   -5.454801|
|        1830|  1.1015e-01|   -5.523751|
|        1840|  1.0992e-01|   -5.511468|
|        1850|  1.0968e-01|   -5.535336|
+-----------------------------------------------------------------------+
|        File Writing Summary       |              Filename             |
+-----------------------------------------------------------------------+
|SU2 binary restart                 |restart_flow_databladeVALIDATION_Blade_2.dat|
|                                   |                     (12464.4 MB/s)|
|Paraview                           |volume_flow_databladeVALIDATION_Blade_2.vtu|
|                                   |                     (1118.27 MB/s)|
|Paraview surface                   |surface_flowdatabladeVALIDATION_Blade_2.vtu|
|                                   |                     (104.461 MB/s)|
|SU2 ASCII restart                  |restart_flow_databladeVALIDATION_Blade_2.csv|
|                                   |                     (21.9222 MB/s)|
|CSV file                           |surface_flowdatabladeVALIDATION_Blade_2.csv|
|                                   |                     (21.8619 MB/s)|
+-----------------------------------------------------------------------+
+--------------------------------------+
|  Inner_Iter|   Time(sec)|    rms[Rho]|
+--------------------------------------+
|        1860|  1.1068e-01|   -5.495870|
|        1870|  1.1047e-01|   -5.496571|
|        1880|  1.1019e-01|   -5.524098|
|        1890|  1.0994e-01|   -5.524825|
|        1900|  1.0972e-01|   -5.473736|
+-----------------------------------------------------------------------+
|        File Writing Summary       |              Filename             |
+-----------------------------------------------------------------------+
|SU2 binary restart                 |restart_flow_databladeVALIDATION_Blade_2.dat|
|                                   |                     (11230.3 MB/s)|
|Paraview                           |volume_flow_databladeVALIDATION_Blade_2.vtu|
|                                   |                     (1071.06 MB/s)|
|Paraview surface                   |surface_flowdatabladeVALIDATION_Blade_2.vtu|
|                                   |                     (84.5204 MB/s)|
|SU2 ASCII restart                  |restart_flow_databladeVALIDATION_Blade_2.csv|
|                                   |                     (21.7707 MB/s)|
|CSV file                           |surface_flowdatabladeVALIDATION_Blade_2.csv|
|                                   |                     (21.3206 MB/s)|
+-----------------------------------------------------------------------+
+--------------------------------------+
|  Inner_Iter|   Time(sec)|    rms[Rho]|
+--------------------------------------+
|        1910|  1.1068e-01|   -5.526457|
|        1920|  1.1040e-01|   -5.590571|
|        1930|  1.1016e-01|   -5.604289|
|        1940|  1.1001e-01|   -5.613019|
|        1950|  1.0978e-01|   -5.656520|
+-----------------------------------------------------------------------+
|        File Writing Summary       |              Filename             |
+-----------------------------------------------------------------------+
|SU2 binary restart                 |restart_flow_databladeVALIDATION_Blade_2.dat|
|                                   |                     (12759.8 MB/s)|
|Paraview                           |volume_flow_databladeVALIDATION_Blade_2.vtu|
|                                   |                     (1104.49 MB/s)|
|Paraview surface                   |surface_flowdatabladeVALIDATION_Blade_2.vtu|
|                                   |                     (105.467 MB/s)|
|SU2 ASCII restart                  |restart_flow_databladeVALIDATION_Blade_2.csv|
|                                   |                     (21.3979 MB/s)|
|CSV file                           |surface_flowdatabladeVALIDATION_Blade_2.csv|
|                                   |                     (20.7961 MB/s)|
+-----------------------------------------------------------------------+
+--------------------------------------+
|  Inner_Iter|   Time(sec)|    rms[Rho]|
+--------------------------------------+
|        1960|  1.1076e-01|   -5.671572|
|        1970|  1.1070e-01|   -5.600678|
|        1980|  1.1055e-01|   -5.585764|
|        1990|  1.1035e-01|   -5.609987|
|        2000|  1.1011e-01|   -5.628968|
+-----------------------------------------------------------------------+
|        File Writing Summary       |              Filename             |
+-----------------------------------------------------------------------+
|SU2 binary restart                 |restart_flow_databladeVALIDATION_Blade_2.dat|
|                                   |                     (12341.3 MB/s)|
|Paraview                           |volume_flow_databladeVALIDATION_Blade_2.vtu|
|                                   |                     (934.514 MB/s)|
|Paraview surface                   |surface_flowdatabladeVALIDATION_Blade_2.vtu|
|                                   |                      (93.314 MB/s)|
|SU2 ASCII restart                  |restart_flow_databladeVALIDATION_Blade_2.csv|
|                                   |                     (21.8643 MB/s)|
|CSV file                           |surface_flowdatabladeVALIDATION_Blade_2.csv|
|                                   |                     (21.1655 MB/s)|
+-----------------------------------------------------------------------+
+--------------------------------------+
|  Inner_Iter|   Time(sec)|    rms[Rho]|
+--------------------------------------+
|        2010|  1.1101e-01|   -5.603209|
|        2020|  1.1081e-01|   -5.559877|
|        2030|  1.1057e-01|   -5.642698|
|        2040|  1.1032e-01|   -5.696134|
|        2050|  1.1011e-01|   -5.691951|
+-----------------------------------------------------------------------+
|        File Writing Summary       |              Filename             |
+-----------------------------------------------------------------------+
|SU2 binary restart                 |restart_flow_databladeVALIDATION_Blade_2.dat|
|                                   |                     (13801.4 MB/s)|
|Paraview                           |volume_flow_databladeVALIDATION_Blade_2.vtu|
|                                   |                     (928.769 MB/s)|
|Paraview surface                   |surface_flowdatabladeVALIDATION_Blade_2.vtu|
|                                   |                      (87.407 MB/s)|
|SU2 ASCII restart                  |restart_flow_databladeVALIDATION_Blade_2.csv|
|                                   |                      (20.411 MB/s)|
|CSV file                           |surface_flowdatabladeVALIDATION_Blade_2.csv|
|                                   |                     (17.9785 MB/s)|
+-----------------------------------------------------------------------+
+--------------------------------------+
|  Inner_Iter|   Time(sec)|    rms[Rho]|
+--------------------------------------+
|        2060|  1.1139e-01|   -5.705657|
|        2070|  1.1159e-01|   -5.770897|
|        2080|  1.1149e-01|   -5.779834|
|        2090|  1.1141e-01|   -5.696689|
|        2100|  1.1141e-01|   -5.783245|
+-----------------------------------------------------------------------+
|        File Writing Summary       |              Filename             |
+-----------------------------------------------------------------------+
|SU2 binary restart                 |restart_flow_databladeVALIDATION_Blade_2.dat|
|                                   |                     (10870.8 MB/s)|
|Paraview                           |volume_flow_databladeVALIDATION_Blade_2.vtu|
|                                   |                     (739.207 MB/s)|
|Paraview surface                   |surface_flowdatabladeVALIDATION_Blade_2.vtu|
|                                   |                     (93.3537 MB/s)|
|SU2 ASCII restart                  |restart_flow_databladeVALIDATION_Blade_2.csv|
|                                   |                     (20.1777 MB/s)|
|CSV file                           |surface_flowdatabladeVALIDATION_Blade_2.csv|
|                                   |                     (5.25157 MB/s)|
+-----------------------------------------------------------------------+
+--------------------------------------+
|  Inner_Iter|   Time(sec)|    rms[Rho]|
+--------------------------------------+
|        2110|  1.1259e-01|   -5.766466|
|        2120|  1.1255e-01|   -5.689130|
|        2130|  1.1253e-01|   -5.654835|
|        2140|  1.1267e-01|   -5.709364|
|        2150|  1.1266e-01|   -5.634903|
+-----------------------------------------------------------------------+
|        File Writing Summary       |              Filename             |
+-----------------------------------------------------------------------+
|SU2 binary restart                 |restart_flow_databladeVALIDATION_Blade_2.dat|
|                                   |                     (6265.38 MB/s)|
|Paraview                           |volume_flow_databladeVALIDATION_Blade_2.vtu|
|                                   |                     (278.304 MB/s)|
|Paraview surface                   |surface_flowdatabladeVALIDATION_Blade_2.vtu|
|                                   |                     (37.8115 MB/s)|
|SU2 ASCII restart                  |restart_flow_databladeVALIDATION_Blade_2.csv|
|                                   |                     (19.2083 MB/s)|
|CSV file                           |surface_flowdatabladeVALIDATION_Blade_2.csv|
|                                   |                     (21.0935 MB/s)|
+-----------------------------------------------------------------------+
+--------------------------------------+
|  Inner_Iter|   Time(sec)|    rms[Rho]|
+--------------------------------------+
|        2160|  1.1405e-01|   -5.703354|
|        2170|  1.1399e-01|   -5.815139|
|        2180|  1.1392e-01|   -5.793505|
|        2190|  1.1411e-01|   -5.803791|
|        2200|  1.1400e-01|   -5.877103|
+-----------------------------------------------------------------------+
|        File Writing Summary       |              Filename             |
+-----------------------------------------------------------------------+
|SU2 binary restart                 |restart_flow_databladeVALIDATION_Blade_2.dat|
|                                   |                     (10297.6 MB/s)|
|Paraview                           |volume_flow_databladeVALIDATION_Blade_2.vtu|
|                                   |                     (906.481 MB/s)|
|Paraview surface                   |surface_flowdatabladeVALIDATION_Blade_2.vtu|
|                                   |                     (96.3612 MB/s)|
|SU2 ASCII restart                  |restart_flow_databladeVALIDATION_Blade_2.csv|
|                                   |                     (18.6343 MB/s)|
|CSV file                           |surface_flowdatabladeVALIDATION_Blade_2.csv|
|                                   |                     (16.8352 MB/s)|
+-----------------------------------------------------------------------+
+--------------------------------------+
|  Inner_Iter|   Time(sec)|    rms[Rho]|
+--------------------------------------+
|        2210|  1.1508e-01|   -5.887342|
|        2220|  1.1499e-01|   -5.780951|
|        2230|  1.1490e-01|   -5.794620|
|        2240|  1.1486e-01|   -5.804721|
|        2250|  1.1478e-01|   -5.761942|
+-----------------------------------------------------------------------+
|        File Writing Summary       |              Filename             |
+-----------------------------------------------------------------------+
|SU2 binary restart                 |restart_flow_databladeVALIDATION_Blade_2.dat|
|                                   |                     (12271.9 MB/s)|
|Paraview                           |volume_flow_databladeVALIDATION_Blade_2.vtu|
|                                   |                     (780.046 MB/s)|
|Paraview surface                   |surface_flowdatabladeVALIDATION_Blade_2.vtu|
|                                   |                     (23.1293 MB/s)|
|SU2 ASCII restart                  |restart_flow_databladeVALIDATION_Blade_2.csv|
|                                   |                     (17.9382 MB/s)|
|CSV file                           |surface_flowdatabladeVALIDATION_Blade_2.csv|
|                                   |                     (20.1692 MB/s)|
+-----------------------------------------------------------------------+
+--------------------------------------+
|  Inner_Iter|   Time(sec)|    rms[Rho]|
+--------------------------------------+
|        2260|  1.1603e-01|   -5.776416|
|        2270|  1.1598e-01|   -5.875515|
|        2280|  1.1580e-01|   -5.909295|
|        2290|  1.1571e-01|   -5.888051|
|        2300|  1.1591e-01|   -5.939684|
+-----------------------------------------------------------------------+
|        File Writing Summary       |              Filename             |
+-----------------------------------------------------------------------+
|SU2 binary restart                 |restart_flow_databladeVALIDATION_Blade_2.dat|
|                                   |                     (9054.58 MB/s)|
|Paraview                           |volume_flow_databladeVALIDATION_Blade_2.vtu|
|                                   |                     (458.967 MB/s)|
|Paraview surface                   |surface_flowdatabladeVALIDATION_Blade_2.vtu|
|                                   |                     (43.2884 MB/s)|
|SU2 ASCII restart                  |restart_flow_databladeVALIDATION_Blade_2.csv|
|                                   |                     (19.2378 MB/s)|
|CSV file                           |surface_flowdatabladeVALIDATION_Blade_2.csv|
|                                   |                     (19.3103 MB/s)|
+-----------------------------------------------------------------------+
+--------------------------------------+
|  Inner_Iter|   Time(sec)|    rms[Rho]|
+--------------------------------------+
|        2310|  1.1685e-01|   -5.998027|
|        2320|  1.1664e-01|   -5.968258|
|        2330|  1.1680e-01|   -5.896053|
|        2340|  1.1669e-01|   -5.984625|
|        2350|  1.1658e-01|   -5.968137|
+-----------------------------------------------------------------------+
|        File Writing Summary       |              Filename             |
+-----------------------------------------------------------------------+
|SU2 binary restart                 |restart_flow_databladeVALIDATION_Blade_2.dat|
|                                   |                     (8090.49 MB/s)|
|Paraview                           |volume_flow_databladeVALIDATION_Blade_2.vtu|
|                                   |                     (750.037 MB/s)|
|Paraview surface                   |surface_flowdatabladeVALIDATION_Blade_2.vtu|
|                                   |                     (83.5595 MB/s)|
[...]
|        2900|  1.2095e-01|   -6.470135|
+-----------------------------------------------------------------------+
|        File Writing Summary       |              Filename             |
+-----------------------------------------------------------------------+
|SU2 binary restart                 |restart_flow_databladeVALIDATION_Blade_2.dat|
|                                   |                     (11089.5 MB/s)|
|Paraview                           |volume_flow_databladeVALIDATION_Blade_2.vtu|
|                                   |                     (689.591 MB/s)|
|Paraview surface                   |surface_flowdatabladeVALIDATION_Blade_2.vtu|
|                                   |                     (41.9047 MB/s)|
|SU2 ASCII restart                  |restart_flow_databladeVALIDATION_Blade_2.csv|
|                                   |                     (20.9651 MB/s)|
|CSV file                           |surface_flowdatabladeVALIDATION_Blade_2.csv|
|                                   |                     (20.8632 MB/s)|
+-----------------------------------------------------------------------+
+--------------------------------------+
|  Inner_Iter|   Time(sec)|    rms[Rho]|
+--------------------------------------+
|        2910|  1.2161e-01|   -6.480271|
|        2920|  1.2146e-01|   -6.400174|
|        2930|  1.2133e-01|   -6.422565|
|        2940|  1.2117e-01|   -6.461017|
|        2950|  1.2102e-01|   -6.403077|
+-----------------------------------------------------------------------+
|        File Writing Summary       |              Filename             |
+-----------------------------------------------------------------------+
|SU2 binary restart                 |restart_flow_databladeVALIDATION_Blade_2.dat|
|                                   |                     (11711.7 MB/s)|
|Paraview                           |volume_flow_databladeVALIDATION_Blade_2.vtu|
|                                   |                     (963.422 MB/s)|
|Paraview surface                   |surface_flowdatabladeVALIDATION_Blade_2.vtu|
|                                   |                     (96.9112 MB/s)|
|SU2 ASCII restart                  |restart_flow_databladeVALIDATION_Blade_2.csv|
|                                   |                     (21.0462 MB/s)|
|CSV file                           |surface_flowdatabladeVALIDATION_Blade_2.csv|
|                                   |                      (19.907 MB/s)|
+-----------------------------------------------------------------------+
+--------------------------------------+
|  Inner_Iter|   Time(sec)|    rms[Rho]|
+--------------------------------------+
|        2960|  1.2169e-01|   -6.347257|
|        2970|  1.2153e-01|   -6.445829|
|        2980|  1.2140e-01|   -6.441104|
|        2990|  1.2131e-01|   -6.340662|
|        3000|  1.2117e-01|   -6.521233|
+-----------------------------------------------------------------------+
|        File Writing Summary       |              Filename             |
+-----------------------------------------------------------------------+
|SU2 binary restart                 |restart_flow_databladeVALIDATION_Blade_2.dat|
|                                   |                     (12162.5 MB/s)|
|Paraview                           |volume_flow_databladeVALIDATION_Blade_2.vtu|
|                                   |                     (884.717 MB/s)|
|Paraview surface                   |surface_flowdatabladeVALIDATION_Blade_2.vtu|
|                                   |                     (85.5067 MB/s)|
|SU2 ASCII restart                  |restart_flow_databladeVALIDATION_Blade_2.csv|
|                                   |                      (20.565 MB/s)|
|CSV file                           |surface_flowdatabladeVALIDATION_Blade_2.csv|
|                                   |                      (18.345 MB/s)|
+-----------------------------------------------------------------------+
+--------------------------------------+
|  Inner_Iter|   Time(sec)|    rms[Rho]|
+--------------------------------------+
|        3010|  1.2181e-01|   -6.543028|
|        3020|  1.2166e-01|   -6.529632|
|        3030|  1.2153e-01|   -6.525439|
|        3040|  1.2138e-01|   -6.611917|
|        3050|  1.2124e-01|   -6.536958|
+-----------------------------------------------------------------------+
|        File Writing Summary       |              Filename             |
+-----------------------------------------------------------------------+
|SU2 binary restart                 |restart_flow_databladeVALIDATION_Blade_2.dat|
|                                   |                     (4263.36 MB/s)|
|Paraview                           |volume_flow_databladeVALIDATION_Blade_2.vtu|
|                                   |                     (945.234 MB/s)|
|Paraview surface                   |surface_flowdatabladeVALIDATION_Blade_2.vtu|
|                                   |                     (98.7774 MB/s)|
|SU2 ASCII restart                  |restart_flow_databladeVALIDATION_Blade_2.csv|
|                                   |                     (21.0421 MB/s)|
|CSV file                           |surface_flowdatabladeVALIDATION_Blade_2.csv|
|                                   |                     (19.7742 MB/s)|
+-----------------------------------------------------------------------+
+--------------------------------------+
|  Inner_Iter|   Time(sec)|    rms[Rho]|
+--------------------------------------+
|        3060|  1.2188e-01|   -6.509377|
|        3070|  1.2174e-01|   -6.558508|
|        3080|  1.2157e-01|   -6.554359|
|        3090|  1.2145e-01|   -6.492011|
|        3100|  1.2135e-01|   -6.465589|
+-----------------------------------------------------------------------+
|        File Writing Summary       |              Filename             |
+-----------------------------------------------------------------------+
|SU2 binary restart                 |restart_flow_databladeVALIDATION_Blade_2.dat|
|                                   |                     (13841.1 MB/s)|
|Paraview                           |volume_flow_databladeVALIDATION_Blade_2.vtu|
|                                   |                     (883.206 MB/s)|
|Paraview surface                   |surface_flowdatabladeVALIDATION_Blade_2.vtu|
|                                   |                     (90.2268 MB/s)|
|SU2 ASCII restart                  |restart_flow_databladeVALIDATION_Blade_2.csv|
|                                   |                     (20.5013 MB/s)|
|CSV file                           |surface_flowdatabladeVALIDATION_Blade_2.csv|
|                                   |                     (19.3475 MB/s)|
+-----------------------------------------------------------------------+
+--------------------------------------+
|  Inner_Iter|   Time(sec)|    rms[Rho]|
+--------------------------------------+
|        3110|  1.2198e-01|   -6.603296|
|        3120|  1.2184e-01|   -6.581637|
|        3130|  1.2173e-01|   -6.589168|
|        3140|  1.2166e-01|   -6.629938|
|        3150|  1.2158e-01|   -6.615679|
+-----------------------------------------------------------------------+
|        File Writing Summary       |              Filename             |
+-----------------------------------------------------------------------+
|SU2 binary restart                 |restart_flow_databladeVALIDATION_Blade_2.dat|
|                                   |                     (11810.5 MB/s)|
|Paraview                           |volume_flow_databladeVALIDATION_Blade_2.vtu|
|                                   |                      (1028.5 MB/s)|
|Paraview surface                   |surface_flowdatabladeVALIDATION_Blade_2.vtu|
|                                   |                     (79.2525 MB/s)|
|SU2 ASCII restart                  |restart_flow_databladeVALIDATION_Blade_2.csv|
|                                   |                     (20.8741 MB/s)|
|CSV file                           |surface_flowdatabladeVALIDATION_Blade_2.csv|
|                                   |                     (17.8467 MB/s)|
+-----------------------------------------------------------------------+
+--------------------------------------+
|  Inner_Iter|   Time(sec)|    rms[Rho]|
+--------------------------------------+
|        3160|  1.2221e-01|   -6.617015|
|        3170|  1.2209e-01|   -6.569117|
|        3180|  1.2194e-01|   -6.660768|
|        3190|  1.2179e-01|   -6.670954|
|        3200|  1.2174e-01|   -6.609516|
+-----------------------------------------------------------------------+
|        File Writing Summary       |              Filename             |
+-----------------------------------------------------------------------+
|SU2 binary restart                 |restart_flow_databladeVALIDATION_Blade_2.dat|
|                                   |                     (11455.1 MB/s)|
|Paraview                           |volume_flow_databladeVALIDATION_Blade_2.vtu|
|                                   |                     (525.041 MB/s)|
|Paraview surface                   |surface_flowdatabladeVALIDATION_Blade_2.vtu|
|                                   |                     (25.2061 MB/s)|
|SU2 ASCII restart                  |restart_flow_databladeVALIDATION_Blade_2.csv|
|                                   |                     (20.5479 MB/s)|
|CSV file                           |surface_flowdatabladeVALIDATION_Blade_2.csv|
|                                   |                     (20.7304 MB/s)|
+-----------------------------------------------------------------------+
+--------------------------------------+
|  Inner_Iter|   Time(sec)|    rms[Rho]|
+--------------------------------------+
|        3210|  1.2242e-01|   -6.715127|
|        3220|  1.2229e-01|   -6.777353|
|        3230|  1.2227e-01|   -6.750286|
|        3240|  1.2219e-01|   -6.758055|
|        3250|  1.2204e-01|   -6.804255|
+-----------------------------------------------------------------------+
|        File Writing Summary       |              Filename             |
+-----------------------------------------------------------------------+
|SU2 binary restart                 |restart_flow_databladeVALIDATION_Blade_2.dat|
|                                   |                     (11049.9 MB/s)|
|Paraview                           |volume_flow_databladeVALIDATION_Blade_2.vtu|
|                                   |                     (979.428 MB/s)|
|Paraview surface                   |surface_flowdatabladeVALIDATION_Blade_2.vtu|
|                                   |                     (100.281 MB/s)|
|SU2 ASCII restart                  |restart_flow_databladeVALIDATION_Blade_2.csv|
|                                   |                     (20.6613 MB/s)|
|CSV file                           |surface_flowdatabladeVALIDATION_Blade_2.csv|
|                                   |                     (19.2178 MB/s)|
+-----------------------------------------------------------------------+
+--------------------------------------+
|  Inner_Iter|   Time(sec)|    rms[Rho]|
+--------------------------------------+
|        3260|  1.2265e-01|   -6.759915|
|        3270|  1.2253e-01|   -6.738291|
|        3280|  1.2238e-01|   -6.792135|
|        3290|  1.2224e-01|   -6.772973|
|        3300|  1.2211e-01|   -6.745026|
+-----------------------------------------------------------------------+
|        File Writing Summary       |              Filename             |
+-----------------------------------------------------------------------+
|SU2 binary restart                 |restart_flow_databladeVALIDATION_Blade_2.dat|
|                                   |                     (11790.1 MB/s)|
|Paraview                           |volume_flow_databladeVALIDATION_Blade_2.vtu|
|                                   |                     (914.994 MB/s)|
|Paraview surface                   |surface_flowdatabladeVALIDATION_Blade_2.vtu|
|                                   |                     (97.6451 MB/s)|
|SU2 ASCII restart                  |restart_flow_databladeVALIDATION_Blade_2.csv|
|                                   |                     (20.5827 MB/s)|
|CSV file                           |surface_flowdatabladeVALIDATION_Blade_2.csv|
|                                   |                     (18.0015 MB/s)|
+-----------------------------------------------------------------------+
+--------------------------------------+
|  Inner_Iter|   Time(sec)|    rms[Rho]|
+--------------------------------------+
|        3310|  1.2272e-01|   -6.835645|
|        3320|  1.2259e-01|   -6.878465|
|        3330|  1.2246e-01|   -6.886818|
|        3340|  1.2235e-01|   -6.879393|
|        3350|  1.2221e-01|   -6.941648|
+-----------------------------------------------------------------------+
|        File Writing Summary       |              Filename             |
+-----------------------------------------------------------------------+
|SU2 binary restart                 |restart_flow_databladeVALIDATION_Blade_2.dat|
|                                   |                     (12884.4 MB/s)|
|Paraview                           |volume_flow_databladeVALIDATION_Blade_2.vtu|
|                                   |                     (938.544 MB/s)|
|Paraview surface                   |surface_flowdatabladeVALIDATION_Blade_2.vtu|
|                                   |                      (100.16 MB/s)|
|SU2 ASCII restart                  |restart_flow_databladeVALIDATION_Blade_2.csv|
|                                   |                     (20.7829 MB/s)|
|CSV file                           |surface_flowdatabladeVALIDATION_Blade_2.csv|
|                                   |                     (18.3273 MB/s)|
+-----------------------------------------------------------------------+
+--------------------------------------+
|  Inner_Iter|   Time(sec)|    rms[Rho]|
+--------------------------------------+
|        3360|  1.2277e-01|   -6.945002|
|        3370|  1.2263e-01|   -6.897983|
|        3380|  1.2253e-01|   -6.895643|
|        3390|  1.2239e-01|   -6.917316|
|        3400|  1.2224e-01|   -6.907634|
+-----------------------------------------------------------------------+
|        File Writing Summary       |              Filename             |
+-----------------------------------------------------------------------+
|SU2 binary restart                 |restart_flow_databladeVALIDATION_Blade_2.dat|
|                                   |                     (952.536 MB/s)|
|Paraview                           |volume_flow_databladeVALIDATION_Blade_2.vtu|
|                                   |                     (920.121 MB/s)|
|Paraview surface                   |surface_flowdatabladeVALIDATION_Blade_2.vtu|
|                                   |                     (99.4087 MB/s)|
|SU2 ASCII restart                  |restart_flow_databladeVALIDATION_Blade_2.csv|
|                                   |                     (20.6734 MB/s)|
|CSV file                           |surface_flowdatabladeVALIDATION_Blade_2.csv|
|                                   |                     (19.3717 MB/s)|
+-----------------------------------------------------------------------+
+--------------------------------------+
|  Inner_Iter|   Time(sec)|    rms[Rho]|
+--------------------------------------+
|        3410|  1.2286e-01|   -6.870940|
|        3420|  1.2275e-01|   -6.875597|
|        3430|  1.2260e-01|   -6.930942|
|        3440|  1.2252e-01|   -6.901093|
|        3450|  1.2237e-01|   -6.994930|
+-----------------------------------------------------------------------+
|        File Writing Summary       |              Filename             |
+-----------------------------------------------------------------------+
|SU2 binary restart                 |restart_flow_databladeVALIDATION_Blade_2.dat|
|                                   |                     (11925.9 MB/s)|
|Paraview                           |volume_flow_databladeVALIDATION_Blade_2.vtu|
|                                   |                     (951.112 MB/s)|
|Paraview surface                   |surface_flowdatabladeVALIDATION_Blade_2.vtu|
|                                   |                     (96.3458 MB/s)|
|SU2 ASCII restart                  |restart_flow_databladeVALIDATION_Blade_2.csv|
|                                   |                      (20.938 MB/s)|
|CSV file                           |surface_flowdatabladeVALIDATION_Blade_2.csv|
|                                   |                     (20.5564 MB/s)|
+-----------------------------------------------------------------------+
+--------------------------------------+
|  Inner_Iter|   Time(sec)|    rms[Rho]|
+--------------------------------------+
|        3460|  1.2293e-01|   -6.995879|
|        3461|  1.2291e-01|   -7.004461|

----------------------------- Solver Exit -------------------------------
All convergence criteria satisfied.
+-----------------------------------------------------------------------+
|      Convergence Field     |     Value    |   Criterion  |  Converged |
+-----------------------------------------------------------------------+
|                    rms[Rho]|      -7.00446|          < -7|         Yes|
+-----------------------------------------------------------------------+
-------------------------------------------------------------------------
+-----------------------------------------------------------------------+
|        File Writing Summary       |              Filename             |
+-----------------------------------------------------------------------+
|SU2 binary restart                 |restart_flow_databladeVALIDATION_Blade_2.dat|
|                                   |                       (12016 MB/s)|
|Paraview                           |volume_flow_databladeVALIDATION_Blade_2.vtu|
|                                   |                      (964.62 MB/s)|
|Paraview surface                   |surface_flowdatabladeVALIDATION_Blade_2.vtu|
|                                   |                     (94.5769 MB/s)|
|SU2 ASCII restart                  |restart_flow_databladeVALIDATION_Blade_2.csv|
|                                   |                     (20.7212 MB/s)|
|CSV file                           |surface_flowdatabladeVALIDATION_Blade_2.csv|
|                                   |                     (20.4479 MB/s)|
+-----------------------------------------------------------------------+

--------------------------- Finalizing Solver ---------------------------
Deleted CNumerics container.
Deleted CIntegration container.
Deleted CSolver container.
Deleted CIteration container.
Deleted CInterface container.
Deleted CGeometry container.
Deleted CFreeFormDefBox class.
Deleted CSurfaceMovement class.
Deleted CVolumetricMovement class.
Deleted CConfig container.
Deleted nInst container.
Deleted COutput class.
-------------------------------------------------------------------------


-------------------------- Performance Summary --------------------------
Simulation totals:
   Wall-clock time (hrs):    0.119002 |            Core-hrs:     1.42803
                   Cores:          12 |          DOFs/point:           5
             Points/core:     5162.17 |   Ghost points/core:     159.917
 Ghost/Owned Point Ratio:   0.0309786 | 

Preprocessing phase:
       Preproc. Time (s):    0.469121 |   Preproc. Time (%):    0.109503

Compute phase:
        Compute Time (s):     425.525 |    Compute Time (%):     99.3269
         Iteration count:        3462 |         Avg. s/iter:    0.122913
     Core-s/iter/Mpoints:     23.0949 |           Mpoints/s:    0.519595

Output phase:
         Output Time (s):     2.41446 |     Output Time (%):    0.563587
            Output count:           1 |       Avg. s/output:     2.41446
 Restart Aggr. BW (MB/s):      776622 |           MB/s/core:     64718.5
-------------------------------------------------------------------------


------------------------- Exit Success (SU2_CFD) ------------------------

