
-------------------------------------------------------------------------
|    ___ _   _ ___                                                      |
|   / __| | | |_  )   Release 8.0.1 "Harrier"                           |
|   \__ \ |_| |/ /                                                      |
|   |___/\___//___|   Suite (Computational Fluid Dynamics Code)         |
|                                                                       |
-------------------------------------------------------------------------
| SU2 Project Website: https://su2code.github.io                        |
|                                                                       |
| The SU2 Project is maintained by the SU2 Foundation                   |
| (http://su2foundation.org)                                            |
-------------------------------------------------------------------------
| Copyright 2012-2024, SU2 Contributors                                 |
|                                                                       |
| SU2 is free software; you can redistribute it and/or                  |
| modify it under the terms of the GNU Lesser General Public            |
| License as published by the Free Software Foundation; either          |
| version 2.1 of the License, or (at your option) any later version.    |
|                                                                       |
| SU2 is distributed in the hope that it will be useful,                |
| but WITHOUT ANY WARRANTY; without even the implied warranty of        |
| MERCHANTABILITY or FITNESS FOR A PARTICULAR PURPOSE. See the GNU      |
| Lesser General Public License for more details.                       |
|                                                                       |
| You should have received a copy of the GNU Lesser General Public      |
| License along with SU2. If not, see <http://www.gnu.org/licenses/>.   |
-------------------------------------------------------------------------

Parsing config file for zone 0

----------------- Physical Case Definition ( Zone 0 ) -------------------
Compressible RANS equations.
Turbulence model: Spalart-Allmaras-noft2-BCM
Hybrid RANS/LES: No Hybrid RANS/LES
Mach number: 0.5.
Angle of attack (AoA): -41 deg, and angle of sideslip (AoS): 0 deg.
Reynolds number: 600000. Reference length 1.0011.
No restart solution, use the values at infinity (freestream).
Dimensional simulation.
The reference area will be computed using y(2D) or z(3D) projection.
The semi-span will be computed using the max y(3D) value.
The reference length is 1.0011 m.
Reference origin for moment evaluation is (0, 0, 0).
Surface(s) where the force coefficients are evaluated: blade1.

Surface(s) plotted in the output file: blade1.
Surface(s) to be analyzed in detail: inlet, outlet, blade1.
Input mesh file name: cascade2D_databladeVALIDATION_Blade_19.su2

--------------- Space Numerical Integration ( Zone 0 ) ------------------
Jameson-Schmidt-Turkel scheme (2nd order in space) for the flow inviscid terms.
JST viscous coefficients (2nd & 4th): 0.5, 0.02.
The method includes a grid stretching correction (p = 0.3).
Scalar upwind solver for the turbulence model.
First order integration in space.
Average of gradients with correction (viscous flow terms).
Average of gradients with correction (viscous turbulence terms).
Gradient for upwind reconstruction: inverse-distance weighted Least-Squares.
Gradient for viscous and source terms: inverse-distance weighted Least-Squares.

--------------- Time Numerical Integration  ( Zone 0 ) ------------------
Local time stepping (steady state simulation).
Euler implicit method for the flow equations.
FGMRES is used for solving the linear system.
Using a LU-SGS preconditioning.
Convergence criteria of the linear solver: 0.0001.
Max number of linear iterations: 10.
V Multigrid Cycle, with 3 multigrid levels.
Damping factor for the residual restriction: 0.75.
Damping factor for the correction prolongation: 0.75.
CFL adaptation. Factor down: 0.1, factor up: 1.2,
                lower limit: 0.1, upper limit: 100,
                acceptable linear residual: 0.001.
+-------------------------------------------+
|  MG Level| Presmooth|PostSmooth|CorrectSmo|
+-------------------------------------------+
|         0|         1|         0|         1|
|         1|         2|         2|         2|
|         2|         3|         3|         3|
|         3|         3|         0|         0|
+-------------------------------------------+
Courant-Friedrichs-Lewy number:       12
Euler implicit time integration for the turbulence model.

------------------ Convergence Criteria  ( Zone 0 ) ---------------------
Maximum number of solver subiterations: 7000.
Begin convergence monitoring at iteration 500.
Residual minimum value: 1e-7.
Cauchy series min. value: 1e-10.
Number of Cauchy elements: 100.
Begin windowed time average at iteration 0.

-------------------- Output Information ( Zone 0 ) ----------------------
File writing frequency: 
+------------------------------------+
|                     File| Frequency|
+------------------------------------+
|                  RESTART|        50|
|                 PARAVIEW|        50|
|         SURFACE_PARAVIEW|        50|
|                      CSV|        50|
|              SURFACE_CSV|        50|
+------------------------------------+
Writing the convergence history file every 1 inner iterations.
Writing the screen convergence history every 10 inner iterations.
The tabular file format is CSV (.csv).
Convergence history file name: history_databladeVALIDATION_Blade_19.
Forces breakdown file name: forces_breakdown.dat.
Surface file name: surface_flowdatabladeVALIDATION_Blade_19.
Volume file name: volume_flow_databladeVALIDATION_Blade_19.
Restart file name: restart_flow_databladeVALIDATION_Blade_19.dat.

------------- Config File Boundary Information ( Zone 0 ) ---------------
+-----------------------------------------------------------------------+
|                        Marker Type|                        Marker Name|
+-----------------------------------------------------------------------+
|                  Periodic boundary|               symmetricWallsBOTTOM|
|                                   |                  symmetricWallsTOP|
+-----------------------------------------------------------------------+
|                     Inlet boundary|                              inlet|
+-----------------------------------------------------------------------+
|                    Outlet boundary|                             outlet|
+-----------------------------------------------------------------------+
|                     Heat flux wall|                             blade1|
|                                   |                             blade2|
+-----------------------------------------------------------------------+

-------------------- Output Preprocessing ( Zone 0 ) --------------------
  Info: Ignoring the following screen output fields:
  LINSOL_ITER_TRANS, LINSOL_RESIDUAL_TRANS
Screen output fields: INNER_ITER, WALL_TIME, RMS_DENSITY
  Info: Ignoring the following history output groups:
  RMS_TKE, RMS_DISSIPATION
History output group(s): INNER_ITER, WALL_TIME, RMS_DENSITY, RMS_MOMENTUM-X, RMS_ENERGY, LINSOL, CFL_NUMBER, FLOW_COEFF_SURF, AERO_COEFF_SURF
Convergence field(s): RMS_DENSITY
Warning: No (valid) fields chosen for time convergence monitoring. Time convergence monitoring inactive.
Volume output fields: COORDINATES, SOLUTION, PRIMITIVE, RESIDUAL, TIMESTEP, MESH_QUALITY, VORTEX_IDENTIFICATION

------------------- Geometry Preprocessing ( Zone 0 ) -------------------
Two dimensional problem.
59858 grid points before partitioning.
88054 volume elements before partitioning.
5 surface markers.
28 boundary elements in index 0 (Marker = inlet).
385 boundary elements in index 1 (Marker = symmetricWallsBOTTOM).
385 boundary elements in index 2 (Marker = symmetricWallsTOP).
28 boundary elements in index 3 (Marker = outlet).
1186 boundary elements in index 4 (Marker = blade1).
Executing the partitioning functions.
Building the graph adjacency structure.
Calling ParMETIS... graph partitioning complete (1409 edge cuts).
Distributing ParMETIS coloring.
Rebalancing vertices.
Rebalancing volume element connectivity.
Rebalancing markers and surface elements.
61666 vertices including ghost points. 
89451 interior elements including halo cells. 
59416 triangles.
30035 quadrilaterals.
Establishing MPI communication patterns.
Setting point connectivity.
Renumbering points (Reverse Cuthill McKee Ordering).
Recomputing point connectivity.
Setting element connectivity.
Checking the numerical grid orientation.
All volume elements are correctly orientend.
There has been a re-orientation of 1018 LINE surface elements.
Identifying edges and vertices.
Setting the control volume structure.
Area of the computational grid: 3.60109.
Searching for the closest normal neighbors to the surfaces.
Storing a mapping from global to local point index.
Compute the surface curvature.
Max K: 120.156. Mean K: 3.34374. Standard deviation K: 11.8581.
Checking for periodicity.
WARNING: Periodicity has been detected. Disabling multigrid. 
Computing mesh quality statistics for the dual control volumes.
+--------------------------------------------------------------+
|           Mesh Quality Metric|        Minimum|        Maximum|
+--------------------------------------------------------------+
|    Orthogonality Angle (deg.)|        37.8293|             90|
|     CV Face Area Aspect Ratio|        1.00031|        352.949|
|           CV Sub-Volume Ratio|              1|        35.8054|
+--------------------------------------------------------------+
Finding max control volume width.
Communicating number of neighbors.
Reference length = 1.02907 m.
Wetted area = 3.26666 m.
Area projection in the x-plane = 1.0877 m, y-plane = 1.02907 m.
Max. coordinate in the x-direction = 1.01524 m, y-direction = 0.725043 m.
Min. coordinate in the x-direction = -0.0138422 m, y-direction = -0.362664 m.
Matching the periodic boundary points for marker pair 1.
 Matched 772 points with a max distance of: 1.52317e-13.
Computing wall distances.

-------------------- Solver Preprocessing ( Zone 0 ) --------------------
Viscous flow: Computing pressure using the ideal gas law
based on the free-stream temperature and a density computed
from the Reynolds number.
Force coefficients computed using free-stream values.

-- Models:
+------------------------------------------------------------------------------+
|          Viscosity Model|        Conductivity Model|              Fluid Model|
+------------------------------------------------------------------------------+
|               SUTHERLAND|          CONSTANT_PRANDTL|                IDEAL_GAS|
+------------------------------------------------------------------------------+
-- Fluid properties:
+------------------------------------------------------------------------------+
|                  Name|    Dim. value|    Ref. value|      Unit|Non-dim. value|
+------------------------------------------------------------------------------+
|        Ref. Viscosity|     1.716e-05|             1|   N.s/m^2|     1.716e-05|
|      Sutherland Temp.|        273.15|             1|         K|        273.15|
|     Sutherland Const.|         110.4|             1|         K|         110.4|
+------------------------------------------------------------------------------+
|        Prandtl (Lam.)|             -|             -|         -|          0.72|
|       Prandtl (Turb.)|             -|             -|         -|           0.9|
+------------------------------------------------------------------------------+
|          Gas Constant|       287.058|             1|  N.m/kg.K|       287.058|
|      Spec. Heat Ratio|             -|             -|         -|           1.4|
+------------------------------------------------------------------------------+
-- Initial and free-stream conditions:
+------------------------------------------------------------------------------+
|                  Name|    Dim. value|    Ref. value|      Unit|Non-dim. value|
+------------------------------------------------------------------------------+
|       Static Pressure|       5487.79|             1|        Pa|       5487.79|
|               Density|     0.0637246|             1|    kg/m^3|     0.0637246|
|           Temperature|           300|             1|         K|           300|
|          Total Energy|        230364|             1|   m^2/s^2|        230364|
|            Velocity-X|       131.027|             1|       m/s|       131.027|
|            Velocity-Y|        -113.9|             1|       m/s|        -113.9|
|    Velocity Magnitude|       173.612|             1|       m/s|       173.612|
+------------------------------------------------------------------------------+
|             Viscosity|   1.84592e-05|             1|   N.s/m^2|   1.84592e-05|
|          Conductivity|             -|             1|   W/m^2.K|             -|
|     Turb. Kin. Energy|       55.3843|             1|   m^2/s^2|       55.3843|
|     Spec. Dissipation|   1.91197e+06|             1|       1/s|   1.91197e+06|
+------------------------------------------------------------------------------+
|           Mach Number|             -|             -|         -|           0.5|
|       Reynolds Number|             -|             -|         -|        600000|
+------------------------------------------------------------------------------+
Initialize Jacobian structure (Navier-Stokes). MG level: 0.
Initialize Jacobian structure (SA model).

------------------- Numerics Preprocessing ( Zone 0 ) -------------------

----------------- Integration Preprocessing ( Zone 0 ) ------------------

------------------- Iteration Preprocessing ( Zone 0 ) ------------------
Euler/Navier-Stokes/RANS fluid iteration.

------------------------------ Begin Solver -----------------------------

Simulation Run using the Single-zone Driver
WARNING: SU2 was not compiled for an AVX-capable architecture. Performance could be better,
         see https://su2code.github.io/docs_v7/Build-SU2-Linux-MacOS/#compiler-optimizations
+--------------------------------------+
|  Inner_Iter|   Time(sec)|    rms[Rho]|
+--------------------------------------+
|           0|  7.0019e-02|   -2.421568|
|          10|  5.8115e-02|   -3.064404|
|          20|  6.1068e-02|   -2.888129|
|          30|  6.0491e-02|   -2.852329|
|          40|  5.9715e-02|   -2.803173|
|          50|  6.1029e-02|   -2.889327|
+-----------------------------------------------------------------------+
|        File Writing Summary       |              Filename             |
+-----------------------------------------------------------------------+
|SU2 binary restart                 |restart_flow_databladeVALIDATION_Blade_19.dat|
|                                   |                     (11841.7 MB/s)|
|Paraview                           |volume_flow_databladeVALIDATION_Blade_19.vtu|
|                                   |                     (981.071 MB/s)|
|Paraview surface                   |surface_flowdatabladeVALIDATION_Blade_19.vtu|
|                                   |                     (109.356 MB/s)|
|SU2 ASCII restart                  |restart_flow_databladeVALIDATION_Blade_19.csv|
|                                   |                     (21.7669 MB/s)|
|CSV file                           |surface_flowdatabladeVALIDATION_Blade_19.csv|
|                                   |                     (22.2923 MB/s)|
+-----------------------------------------------------------------------+
+--------------------------------------+
|  Inner_Iter|   Time(sec)|    rms[Rho]|
+--------------------------------------+
|          60|  9.7399e-02|   -2.978825|
|          70|  9.2916e-02|   -2.944628|
|          80|  8.9088e-02|   -2.917721|
|          90|  8.5655e-02|   -3.017274|
|         100|  8.3379e-02|   -2.908663|
+-----------------------------------------------------------------------+
|        File Writing Summary       |              Filename             |
+-----------------------------------------------------------------------+
|SU2 binary restart                 |restart_flow_databladeVALIDATION_Blade_19.dat|
|                                   |                     (12953.2 MB/s)|
|Paraview                           |volume_flow_databladeVALIDATION_Blade_19.vtu|
|                                   |                     (1037.08 MB/s)|
|Paraview surface                   |surface_flowdatabladeVALIDATION_Blade_19.vtu|
|                                   |                     (100.144 MB/s)|
|SU2 ASCII restart                  |restart_flow_databladeVALIDATION_Blade_19.csv|
|                                   |                     (21.7942 MB/s)|
|CSV file                           |surface_flowdatabladeVALIDATION_Blade_19.csv|
|                                   |                     (21.8405 MB/s)|
+-----------------------------------------------------------------------+
+--------------------------------------+
|  Inner_Iter|   Time(sec)|    rms[Rho]|
+--------------------------------------+
|         110|  1.0173e-01|   -2.798248|
|         120|  9.8172e-02|   -2.908200|
|         130|  9.4953e-02|   -2.940024|
|         140|  9.3036e-02|   -2.975374|
|         150|  9.1026e-02|   -3.104214|
+-----------------------------------------------------------------------+
|        File Writing Summary       |              Filename             |
+-----------------------------------------------------------------------+
|SU2 binary restart                 |restart_flow_databladeVALIDATION_Blade_19.dat|
|                                   |                     (12777.4 MB/s)|
|Paraview                           |volume_flow_databladeVALIDATION_Blade_19.vtu|
|                                   |                     (1038.19 MB/s)|
|Paraview surface                   |surface_flowdatabladeVALIDATION_Blade_19.vtu|
|                                   |                     (105.209 MB/s)|
|SU2 ASCII restart                  |restart_flow_databladeVALIDATION_Blade_19.csv|
|                                   |                     (21.8271 MB/s)|
|CSV file                           |surface_flowdatabladeVALIDATION_Blade_19.csv|
|                                   |                     (22.5152 MB/s)|
+-----------------------------------------------------------------------+
+--------------------------------------+
|  Inner_Iter|   Time(sec)|    rms[Rho]|
+--------------------------------------+
|         160|  1.0251e-01|   -3.127256|
|         170|  9.9677e-02|   -3.178427|
|         180|  9.7599e-02|   -3.096510|
|         190|  9.5761e-02|   -3.104085|
|         200|  9.3559e-02|   -3.157000|
+-----------------------------------------------------------------------+
|        File Writing Summary       |              Filename             |
+-----------------------------------------------------------------------+
|SU2 binary restart                 |restart_flow_databladeVALIDATION_Blade_19.dat|
|                                   |                     (13088.2 MB/s)|
|Paraview                           |volume_flow_databladeVALIDATION_Blade_19.vtu|
|                                   |                     (1025.12 MB/s)|
|Paraview surface                   |surface_flowdatabladeVALIDATION_Blade_19.vtu|
|                                   |                     (110.875 MB/s)|
|SU2 ASCII restart                  |restart_flow_databladeVALIDATION_Blade_19.csv|
|                                   |                     (22.0113 MB/s)|
|CSV file                           |surface_flowdatabladeVALIDATION_Blade_19.csv|
|                                   |                       (21.69 MB/s)|
+-----------------------------------------------------------------------+
+--------------------------------------+
|  Inner_Iter|   Time(sec)|    rms[Rho]|
+--------------------------------------+
|         210|  1.0233e-01|   -3.142492|
|         220|  1.0062e-01|   -3.161680|
|         230|  9.8707e-02|   -3.325271|
|         240|  9.6794e-02|   -3.373503|
|         250|  9.5457e-02|   -3.234971|
+-----------------------------------------------------------------------+
|        File Writing Summary       |              Filename             |
+-----------------------------------------------------------------------+
|SU2 binary restart                 |restart_flow_databladeVALIDATION_Blade_19.dat|
|                                   |                     (12615.3 MB/s)|
|Paraview                           |volume_flow_databladeVALIDATION_Blade_19.vtu|
|                                   |                     (1042.63 MB/s)|
|Paraview surface                   |surface_flowdatabladeVALIDATION_Blade_19.vtu|
|                                   |                     (134.347 MB/s)|
|SU2 ASCII restart                  |restart_flow_databladeVALIDATION_Blade_19.csv|
|                                   |                     (22.2005 MB/s)|
|CSV file                           |surface_flowdatabladeVALIDATION_Blade_19.csv|
|                                   |                     (21.7532 MB/s)|
+-----------------------------------------------------------------------+
+--------------------------------------+
|  Inner_Iter|   Time(sec)|    rms[Rho]|
+--------------------------------------+
|         260|  1.0254e-01|   -3.268471|
|         270|  1.0080e-01|   -3.402856|
|         280|  9.9649e-02|   -3.197228|
|         290|  9.8426e-02|   -3.300285|
|         300|  9.7044e-02|   -3.415755|
+-----------------------------------------------------------------------+
|        File Writing Summary       |              Filename             |
+-----------------------------------------------------------------------+
|SU2 binary restart                 |restart_flow_databladeVALIDATION_Blade_19.dat|
|                                   |                     (12520.4 MB/s)|
|Paraview                           |volume_flow_databladeVALIDATION_Blade_19.vtu|
|                                   |                     (1075.31 MB/s)|
|Paraview surface                   |surface_flowdatabladeVALIDATION_Blade_19.vtu|
|                                   |                     (92.5332 MB/s)|
|SU2 ASCII restart                  |restart_flow_databladeVALIDATION_Blade_19.csv|
|                                   |                     (21.6133 MB/s)|
|CSV file                           |surface_flowdatabladeVALIDATION_Blade_19.csv|
|                                   |                     (21.9963 MB/s)|
+-----------------------------------------------------------------------+
+--------------------------------------+
|  Inner_Iter|   Time(sec)|    rms[Rho]|
+--------------------------------------+
|         310|  1.0306e-01|   -3.377212|
|         320|  1.0191e-01|   -3.223816|
|         330|  1.0069e-01|   -3.285132|
|         340|  9.9432e-02|   -3.329528|
|         350|  9.8244e-02|   -3.065068|
+-----------------------------------------------------------------------+
|        File Writing Summary       |              Filename             |
+-----------------------------------------------------------------------+
|SU2 binary restart                 |restart_flow_databladeVALIDATION_Blade_19.dat|
|                                   |                     (13406.6 MB/s)|
|Paraview                           |volume_flow_databladeVALIDATION_Blade_19.vtu|
|                                   |                     (1039.13 MB/s)|
|Paraview surface                   |surface_flowdatabladeVALIDATION_Blade_19.vtu|
|                                   |                     (97.7362 MB/s)|
|SU2 ASCII restart                  |restart_flow_databladeVALIDATION_Blade_19.csv|
|                                   |                     (21.2472 MB/s)|
|CSV file                           |surface_flowdatabladeVALIDATION_Blade_19.csv|
|                                   |                     (22.0597 MB/s)|
+-----------------------------------------------------------------------+
+--------------------------------------+
|  Inner_Iter|   Time(sec)|    rms[Rho]|
+--------------------------------------+
|         360|  1.0277e-01|   -3.096271|
|         370|  1.0121e-01|   -3.302487|
|         380|  1.0041e-01|   -2.978460|
|         390|  9.9342e-02|   -3.171708|
|         400|  9.8349e-02|   -3.253832|
+-----------------------------------------------------------------------+
|        File Writing Summary       |              Filename             |
+-----------------------------------------------------------------------+
|SU2 binary restart                 |restart_flow_databladeVALIDATION_Blade_19.dat|
|                                   |                     (11706.8 MB/s)|
|Paraview                           |volume_flow_databladeVALIDATION_Blade_19.vtu|
|                                   |                      (1077.1 MB/s)|
|Paraview surface                   |surface_flowdatabladeVALIDATION_Blade_19.vtu|
|                                   |                     (87.6294 MB/s)|
|SU2 ASCII restart                  |restart_flow_databladeVALIDATION_Blade_19.csv|
|                                   |                     (21.9179 MB/s)|
|CSV file                           |surface_flowdatabladeVALIDATION_Blade_19.csv|
|                                   |                     (20.3368 MB/s)|
+-----------------------------------------------------------------------+
+--------------------------------------+
|  Inner_Iter|   Time(sec)|    rms[Rho]|
+--------------------------------------+
|         410|  1.0287e-01|   -3.003986|
|         420|  1.0201e-01|   -2.996494|
|         430|  1.0102e-01|   -3.205549|
|         440|  1.0012e-01|   -3.177306|
|         450|  9.9458e-02|   -3.117449|
+-----------------------------------------------------------------------+
|        File Writing Summary       |              Filename             |
+-----------------------------------------------------------------------+
|SU2 binary restart                 |restart_flow_databladeVALIDATION_Blade_19.dat|
|                                   |                     (15018.3 MB/s)|
|Paraview                           |volume_flow_databladeVALIDATION_Blade_19.vtu|
|                                   |                     (1089.86 MB/s)|
|Paraview surface                   |surface_flowdatabladeVALIDATION_Blade_19.vtu|
|                                   |                     (130.373 MB/s)|
|SU2 ASCII restart                  |restart_flow_databladeVALIDATION_Blade_19.csv|
|                                   |                     (22.0143 MB/s)|
|CSV file                           |surface_flowdatabladeVALIDATION_Blade_19.csv|
|                                   |                     (22.3989 MB/s)|
+-----------------------------------------------------------------------+
+--------------------------------------+
|  Inner_Iter|   Time(sec)|    rms[Rho]|
+--------------------------------------+
|         460|  1.0329e-01|   -3.430450|
|         470|  1.0236e-01|   -3.411587|
|         480|  1.0155e-01|   -3.302478|
|         490|  1.0077e-01|   -3.378559|
|         500|  9.9884e-02|   -3.570804|
+-----------------------------------------------------------------------+
|        File Writing Summary       |              Filename             |
+-----------------------------------------------------------------------+
|SU2 binary restart                 |restart_flow_databladeVALIDATION_Blade_19.dat|
|                                   |                     (13816.6 MB/s)|
|Paraview                           |volume_flow_databladeVALIDATION_Blade_19.vtu|
|                                   |                     (1123.77 MB/s)|
|Paraview surface                   |surface_flowdatabladeVALIDATION_Blade_19.vtu|
|                                   |                     (102.888 MB/s)|
|SU2 ASCII restart                  |restart_flow_databladeVALIDATION_Blade_19.csv|
|                                   |                     (21.6041 MB/s)|
|CSV file                           |surface_flowdatabladeVALIDATION_Blade_19.csv|
|                                   |                     (19.8016 MB/s)|
+-----------------------------------------------------------------------+
+--------------------------------------+
|  Inner_Iter|   Time(sec)|    rms[Rho]|
+--------------------------------------+
|         510|  1.0349e-01|   -3.387315|
|         520|  1.0280e-01|   -3.261714|
|         530|  1.0203e-01|   -3.440652|
|         540|  1.0136e-01|   -3.515861|
|         550|  1.0076e-01|   -3.389890|
+-----------------------------------------------------------------------+
|        File Writing Summary       |              Filename             |
+-----------------------------------------------------------------------+
|SU2 binary restart                 |restart_flow_databladeVALIDATION_Blade_19.dat|
|                                   |                      (8781.2 MB/s)|
|Paraview                           |volume_flow_databladeVALIDATION_Blade_19.vtu|
|                                   |                     (938.295 MB/s)|
|Paraview surface                   |surface_flowdatabladeVALIDATION_Blade_19.vtu|
|                                   |                     (90.8148 MB/s)|
|SU2 ASCII restart                  |restart_flow_databladeVALIDATION_Blade_19.csv|
|                                   |                     (21.8877 MB/s)|
|CSV file                           |surface_flowdatabladeVALIDATION_Blade_19.csv|
|                                   |                     (20.8798 MB/s)|
+-----------------------------------------------------------------------+
+--------------------------------------+
|  Inner_Iter|   Time(sec)|    rms[Rho]|
+--------------------------------------+
|         560|  1.0403e-01|   -3.500994|
|         570|  1.0332e-01|   -3.679313|
|         580|  1.0263e-01|   -3.557003|
|         590|  1.0202e-01|   -3.470925|
|         600|  1.0135e-01|   -3.636450|
+-----------------------------------------------------------------------+
|        File Writing Summary       |              Filename             |
+-----------------------------------------------------------------------+
|SU2 binary restart                 |restart_flow_databladeVALIDATION_Blade_19.dat|
|                                   |                     (13117.5 MB/s)|
|Paraview                           |volume_flow_databladeVALIDATION_Blade_19.vtu|
|                                   |                     (1126.81 MB/s)|
|Paraview surface                   |surface_flowdatabladeVALIDATION_Blade_19.vtu|
|                                   |                      (99.573 MB/s)|
|SU2 ASCII restart                  |restart_flow_databladeVALIDATION_Blade_19.csv|
|                                   |                     (21.8229 MB/s)|
|CSV file                           |surface_flowdatabladeVALIDATION_Blade_19.csv|
|                                   |                     (22.1444 MB/s)|
+-----------------------------------------------------------------------+
+--------------------------------------+
|  Inner_Iter|   Time(sec)|    rms[Rho]|
+--------------------------------------+
|         610|  1.0423e-01|   -3.753246|
|         620|  1.0357e-01|   -3.565478|
|         630|  1.0299e-01|   -3.542664|
|         640|  1.0230e-01|   -3.702011|
|         650|  1.0164e-01|   -3.759988|
+-----------------------------------------------------------------------+
|        File Writing Summary       |              Filename             |
+-----------------------------------------------------------------------+
|SU2 binary restart                 |restart_flow_databladeVALIDATION_Blade_19.dat|
|                                   |                     (12782.5 MB/s)|
|Paraview                           |volume_flow_databladeVALIDATION_Blade_19.vtu|
|                                   |                     (1062.35 MB/s)|
|Paraview surface                   |surface_flowdatabladeVALIDATION_Blade_19.vtu|
|                                   |                     (129.262 MB/s)|
|SU2 ASCII restart                  |restart_flow_databladeVALIDATION_Blade_19.csv|
|                                   |                     (21.8438 MB/s)|
|CSV file                           |surface_flowdatabladeVALIDATION_Blade_19.csv|
|                                   |                     (22.0404 MB/s)|
+-----------------------------------------------------------------------+
+--------------------------------------+
|  Inner_Iter|   Time(sec)|    rms[Rho]|
+--------------------------------------+
|         660|  1.0439e-01|   -3.635264|
|         670|  1.0386e-01|   -3.668058|
|         680|  1.0320e-01|   -3.818303|
|         690|  1.0254e-01|   -3.816308|
|         700|  1.0199e-01|   -3.620458|
+-----------------------------------------------------------------------+
|        File Writing Summary       |              Filename             |
+-----------------------------------------------------------------------+
|SU2 binary restart                 |restart_flow_databladeVALIDATION_Blade_19.dat|
|                                   |                     (12056.6 MB/s)|
|Paraview                           |volume_flow_databladeVALIDATION_Blade_19.vtu|
|                                   |                     (976.876 MB/s)|
|Paraview surface                   |surface_flowdatabladeVALIDATION_Blade_19.vtu|
|                                   |                     (102.997 MB/s)|
|SU2 ASCII restart                  |restart_flow_databladeVALIDATION_Blade_19.csv|
|                                   |                     (22.1723 MB/s)|
|CSV file                           |surface_flowdatabladeVALIDATION_Blade_19.csv|
|                                   |                     (20.8533 MB/s)|
+-----------------------------------------------------------------------+
+--------------------------------------+
|  Inner_Iter|   Time(sec)|    rms[Rho]|
+--------------------------------------+
|         710|  1.0454e-01|   -3.712977|
|         720|  1.0390e-01|   -3.875645|
|         730|  1.0330e-01|   -3.766747|
|         740|  1.0279e-01|   -3.681073|
|         750|  1.0228e-01|   -3.842901|
+-----------------------------------------------------------------------+
|        File Writing Summary       |              Filename             |
+-----------------------------------------------------------------------+
|SU2 binary restart                 |restart_flow_databladeVALIDATION_Blade_19.dat|
|                                   |                     (12965.9 MB/s)|
|Paraview                           |volume_flow_databladeVALIDATION_Blade_19.vtu|
|                                   |                     (1016.02 MB/s)|
|Paraview surface                   |surface_flowdatabladeVALIDATION_Blade_19.vtu|
|                                   |                     (101.776 MB/s)|
|SU2 ASCII restart                  |restart_flow_databladeVALIDATION_Blade_19.csv|
|                                   |                     (21.8395 MB/s)|
|CSV file                           |surface_flowdatabladeVALIDATION_Blade_19.csv|
|                                   |                     (19.8687 MB/s)|
+-----------------------------------------------------------------------+
+--------------------------------------+
|  Inner_Iter|   Time(sec)|    rms[Rho]|
+--------------------------------------+
|         760|  1.0461e-01|   -3.966567|
|         770|  1.0405e-01|   -3.856764|
|         780|  1.0361e-01|   -3.858241|
|         790|  1.0304e-01|   -4.073801|
|         800|  1.0256e-01|   -3.903126|
+-----------------------------------------------------------------------+
|        File Writing Summary       |              Filename             |
+-----------------------------------------------------------------------+
|SU2 binary restart                 |restart_flow_databladeVALIDATION_Blade_19.dat|
|                                   |                     (12213.9 MB/s)|
|Paraview                           |volume_flow_databladeVALIDATION_Blade_19.vtu|
|                                   |                     (1008.46 MB/s)|
|Paraview surface                   |surface_flowdatabladeVALIDATION_Blade_19.vtu|
|                                   |                     (97.6057 MB/s)|
|SU2 ASCII restart                  |restart_flow_databladeVALIDATION_Blade_19.csv|
|                                   |                     (21.6545 MB/s)|
|CSV file                           |surface_flowdatabladeVALIDATION_Blade_19.csv|
|                                   |                     (21.3485 MB/s)|
+-----------------------------------------------------------------------+
+--------------------------------------+
|  Inner_Iter|   Time(sec)|    rms[Rho]|
+--------------------------------------+
|         810|  1.0492e-01|   -3.873779|
|         820|  1.0440e-01|   -4.070197|
|         830|  1.0387e-01|   -4.120979|
|         840|  1.0339e-01|   -3.971212|
|         850|  1.0297e-01|   -3.995826|
+-----------------------------------------------------------------------+
|        File Writing Summary       |              Filename             |
+-----------------------------------------------------------------------+
|SU2 binary restart                 |restart_flow_databladeVALIDATION_Blade_19.dat|
|                                   |                     (12270.8 MB/s)|
|Paraview                           |volume_flow_databladeVALIDATION_Blade_19.vtu|
|                                   |                     (1039.62 MB/s)|
|Paraview surface                   |surface_flowdatabladeVALIDATION_Blade_19.vtu|
|                                   |                     (137.976 MB/s)|
|SU2 ASCII restart                  |restart_flow_databladeVALIDATION_Blade_19.csv|
|                                   |                     (21.7196 MB/s)|
|CSV file                           |surface_flowdatabladeVALIDATION_Blade_19.csv|
|                                   |                     (21.3706 MB/s)|
+-----------------------------------------------------------------------+
+--------------------------------------+
|  Inner_Iter|   Time(sec)|    rms[Rho]|
+--------------------------------------+
|         860|  1.0502e-01|   -4.154617|
|         870|  1.0452e-01|   -4.102571|
|         880|  1.0407e-01|   -3.969399|
|         890|  1.0362e-01|   -4.039977|
|         900|  1.0312e-01|   -4.127156|
+-----------------------------------------------------------------------+
|        File Writing Summary       |              Filename             |
+-----------------------------------------------------------------------+
|SU2 binary restart                 |restart_flow_databladeVALIDATION_Blade_19.dat|
|                                   |                     (12998.9 MB/s)|
|Paraview                           |volume_flow_databladeVALIDATION_Blade_19.vtu|
|                                   |                     (1059.45 MB/s)|
|Paraview surface                   |surface_flowdatabladeVALIDATION_Blade_19.vtu|
|                                   |                     (110.956 MB/s)|
|SU2 ASCII restart                  |restart_flow_databladeVALIDATION_Blade_19.csv|
|                                   |                     (22.0231 MB/s)|
|CSV file                           |surface_flowdatabladeVALIDATION_Blade_19.csv|
|                                   |                     (21.2376 MB/s)|
+-----------------------------------------------------------------------+
+--------------------------------------+
|  Inner_Iter|   Time(sec)|    rms[Rho]|
+--------------------------------------+
|         910|  1.0521e-01|   -3.977705|
|         920|  1.0483e-01|   -4.042092|
|         930|  1.0437e-01|   -4.144455|
|         940|  1.0396e-01|   -4.038372|
|         950|  1.0357e-01|   -4.060498|
+-----------------------------------------------------------------------+
|        File Writing Summary       |              Filename             |
+-----------------------------------------------------------------------+
|SU2 binary restart                 |restart_flow_databladeVALIDATION_Blade_19.dat|
|                                   |                     (11612.2 MB/s)|
|Paraview                           |volume_flow_databladeVALIDATION_Blade_19.vtu|
|                                   |                     (1027.62 MB/s)|
|Paraview surface                   |surface_flowdatabladeVALIDATION_Blade_19.vtu|
|                                   |                      (91.407 MB/s)|
|SU2 ASCII restart                  |restart_flow_databladeVALIDATION_Blade_19.csv|
|                                   |                     (21.6071 MB/s)|
|CSV file                           |surface_flowdatabladeVALIDATION_Blade_19.csv|
|                                   |                     (21.3998 MB/s)|
+-----------------------------------------------------------------------+
+--------------------------------------+
|  Inner_Iter|   Time(sec)|    rms[Rho]|
+--------------------------------------+
|         960|  1.0545e-01|   -4.198943|
|         970|  1.0501e-01|   -4.103954|
|         980|  1.0462e-01|   -3.983087|
|         990|  1.0422e-01|   -4.155656|
|        1000|  1.0374e-01|   -4.264493|
+-----------------------------------------------------------------------+
|        File Writing Summary       |              Filename             |
+-----------------------------------------------------------------------+
|SU2 binary restart                 |restart_flow_databladeVALIDATION_Blade_19.dat|
|                                   |                     (12357.1 MB/s)|
|Paraview                           |volume_flow_databladeVALIDATION_Blade_19.vtu|
|                                   |                     (1130.67 MB/s)|
|Paraview surface                   |surface_flowdatabladeVALIDATION_Blade_19.vtu|
|                                   |                     (99.8782 MB/s)|
|SU2 ASCII restart                  |restart_flow_databladeVALIDATION_Blade_19.csv|
|                                   |                     (21.6064 MB/s)|
|CSV file                           |surface_flowdatabladeVALIDATION_Blade_19.csv|
|                                   |                     (22.5046 MB/s)|
+-----------------------------------------------------------------------+
+--------------------------------------+
|  Inner_Iter|   Time(sec)|    rms[Rho]|
+--------------------------------------+
|        1010|  1.0556e-01|   -4.028944|
|        1020|  1.0519e-01|   -4.053144|
|        1030|  1.0474e-01|   -4.276745|
|        1040|  1.0429e-01|   -4.258420|
|        1050|  1.0397e-01|   -4.067549|
+-----------------------------------------------------------------------+
|        File Writing Summary       |              Filename             |
+-----------------------------------------------------------------------+
|SU2 binary restart                 |restart_flow_databladeVALIDATION_Blade_19.dat|
|                                   |                     (9819.83 MB/s)|
|Paraview                           |volume_flow_databladeVALIDATION_Blade_19.vtu|
|                                   |                     (1062.24 MB/s)|
|Paraview surface                   |surface_flowdatabladeVALIDATION_Blade_19.vtu|
|                                   |                     (106.708 MB/s)|
|SU2 ASCII restart                  |restart_flow_databladeVALIDATION_Blade_19.csv|
|                                   |                     (21.5195 MB/s)|
|CSV file                           |surface_flowdatabladeVALIDATION_Blade_19.csv|
|                                   |                     (19.1298 MB/s)|
+-----------------------------------------------------------------------+
+--------------------------------------+
|  Inner_Iter|   Time(sec)|    rms[Rho]|
+--------------------------------------+
|        1060|  1.0585e-01|   -4.206369|
|        1070|  1.0539e-01|   -4.334204|
|        1080|  1.0506e-01|   -4.140564|
|        1090|  1.0475e-01|   -4.120333|
|        1100|  1.0456e-01|   -4.329453|
+-----------------------------------------------------------------------+
|        File Writing Summary       |              Filename             |
+-----------------------------------------------------------------------+
|SU2 binary restart                 |restart_flow_databladeVALIDATION_Blade_19.dat|
|                                   |                     (10612.5 MB/s)|
|Paraview                           |volume_flow_databladeVALIDATION_Blade_19.vtu|
|                                   |                     (568.624 MB/s)|
|Paraview surface                   |surface_flowdatabladeVALIDATION_Blade_19.vtu|
|                                   |                     (100.578 MB/s)|
|SU2 ASCII restart                  |restart_flow_databladeVALIDATION_Blade_19.csv|
|                                   |                     (19.4169 MB/s)|
|CSV file                           |surface_flowdatabladeVALIDATION_Blade_19.csv|
|                                   |                     (21.1525 MB/s)|
+-----------------------------------------------------------------------+
+--------------------------------------+
|  Inner_Iter|   Time(sec)|    rms[Rho]|
+--------------------------------------+
|        1110|  1.0639e-01|   -4.379059|
|        1120|  1.0653e-01|   -4.129623|
|        1130|  1.0634e-01|   -4.179027|
|        1140|  1.0600e-01|   -4.423402|
|        1150|  1.0645e-01|   -4.208991|
+-----------------------------------------------------------------------+
|        File Writing Summary       |              Filename             |
+-----------------------------------------------------------------------+
|SU2 binary restart                 |restart_flow_databladeVALIDATION_Blade_19.dat|
|                                   |                     (3953.86 MB/s)|
|Paraview                           |volume_flow_databladeVALIDATION_Blade_19.vtu|
|                                   |                     (632.727 MB/s)|
|Paraview surface                   |surface_flowdatabladeVALIDATION_Blade_19.vtu|
|                                   |                       (51.48 MB/s)|
|SU2 ASCII restart                  |restart_flow_databladeVALIDATION_Blade_19.csv|
|                                   |                     (20.5432 MB/s)|
|CSV file                           |surface_flowdatabladeVALIDATION_Blade_19.csv|
|                                   |                     (17.7213 MB/s)|
+-----------------------------------------------------------------------+
+--------------------------------------+
|  Inner_Iter|   Time(sec)|    rms[Rho]|
+--------------------------------------+
|        1160|  1.0832e-01|   -4.176504|
|        1170|  1.0806e-01|   -4.378070|
|        1180|  1.0775e-01|   -4.434815|
|        1190|  1.0749e-01|   -4.201497|
|        1200|  1.0775e-01|   -4.241677|
+-----------------------------------------------------------------------+
|        File Writing Summary       |              Filename             |
+-----------------------------------------------------------------------+
|SU2 binary restart                 |restart_flow_databladeVALIDATION_Blade_19.dat|
|                                   |                     (10307.5 MB/s)|
|Paraview                           |volume_flow_databladeVALIDATION_Blade_19.vtu|
|                                   |                     (868.406 MB/s)|
|Paraview surface                   |surface_flowdatabladeVALIDATION_Blade_19.vtu|
|                                   |                     (94.0787 MB/s)|
|SU2 ASCII restart                  |restart_flow_databladeVALIDATION_Blade_19.csv|
|                                   |                     (20.1232 MB/s)|
|CSV file                           |surface_flowdatabladeVALIDATION_Blade_19.csv|
|                                   |                     (21.2103 MB/s)|
+-----------------------------------------------------------------------+
+--------------------------------------+
|  Inner_Iter|   Time(sec)|    rms[Rho]|
+--------------------------------------+
|        1210|  1.0940e-01|   -4.460398|
|        1220|  1.0906e-01|   -4.437239|
|        1230|  1.0887e-01|   -4.235381|
|        1240|  1.0903e-01|   -4.326770|
|        1250|  1.0871e-01|   -4.529602|
+-----------------------------------------------------------------------+
|        File Writing Summary       |              Filename             |
+-----------------------------------------------------------------------+
|SU2 binary restart                 |restart_flow_databladeVALIDATION_Blade_19.dat|
|                                   |                     (10977.9 MB/s)|
|Paraview                           |volume_flow_databladeVALIDATION_Blade_19.vtu|
|                                   |                     (936.514 MB/s)|
|Paraview surface                   |surface_flowdatabladeVALIDATION_Blade_19.vtu|
|                                   |                     (118.563 MB/s)|
|SU2 ASCII restart                  |restart_flow_databladeVALIDATION_Blade_19.csv|
|                                   |                      (19.855 MB/s)|
|CSV file                           |surface_flowdatabladeVALIDATION_Blade_19.csv|
|                                   |                     (20.4385 MB/s)|
+-----------------------------------------------------------------------+
+--------------------------------------+
|  Inner_Iter|   Time(sec)|    rms[Rho]|
+--------------------------------------+
|        1260|  1.1037e-01|   -4.328471|
|        1270|  1.1012e-01|   -4.289986|
|        1280|  1.0978e-01|   -4.486918|
|        1290|  1.0997e-01|   -4.508709|
|        1300|  1.0982e-01|   -4.333807|
+-----------------------------------------------------------------------+
|        File Writing Summary       |              Filename             |
+-----------------------------------------------------------------------+
|SU2 binary restart                 |restart_flow_databladeVALIDATION_Blade_19.dat|
|                                   |                     (11684.3 MB/s)|
|Paraview                           |volume_flow_databladeVALIDATION_Blade_19.vtu|
|                                   |                     (751.788 MB/s)|
|Paraview surface                   |surface_flowdatabladeVALIDATION_Blade_19.vtu|
|                                   |                     (56.6848 MB/s)|
|SU2 ASCII restart                  |restart_flow_databladeVALIDATION_Blade_19.csv|
|                                   |                     (19.7107 MB/s)|
|CSV file                           |surface_flowdatabladeVALIDATION_Blade_19.csv|
|                                   |                     (21.9027 MB/s)|
+-----------------------------------------------------------------------+
+--------------------------------------+
|  Inner_Iter|   Time(sec)|    rms[Rho]|
+--------------------------------------+
|        1310|  1.1132e-01|   -4.559567|
|        1320|  1.1104e-01|   -4.632878|
|        1330|  1.1087e-01|   -4.407567|
|        1340|  1.1109e-01|   -4.565494|
|        1350|  1.1073e-01|   -4.720733|
+-----------------------------------------------------------------------+
|        File Writing Summary       |              Filename             |
+-----------------------------------------------------------------------+
|SU2 binary restart                 |restart_flow_databladeVALIDATION_Blade_19.dat|
|                                   |                     (13843.2 MB/s)|
|Paraview                           |volume_flow_databladeVALIDATION_Blade_19.vtu|
|                                   |                     (963.751 MB/s)|
|Paraview surface                   |surface_flowdatabladeVALIDATION_Blade_19.vtu|
|                                   |                     (61.4294 MB/s)|
|SU2 ASCII restart                  |restart_flow_databladeVALIDATION_Blade_19.csv|
|                                   |                      (19.822 MB/s)|
|CSV file                           |surface_flowdatabladeVALIDATION_Blade_19.csv|
|                                   |                     (21.7057 MB/s)|
+-----------------------------------------------------------------------+
+--------------------------------------+
|  Inner_Iter|   Time(sec)|    rms[Rho]|
+--------------------------------------+
|        1360|  1.1224e-01|   -4.612782|
|        1370|  1.1201e-01|   -4.529810|
|        1380|  1.1230e-01|   -4.590071|
|        1390|  1.1236e-01|   -4.672138|
|        1400|  1.1214e-01|   -4.892514|
+-----------------------------------------------------------------------+
|        File Writing Summary       |              Filename             |
+-----------------------------------------------------------------------+
|SU2 binary restart                 |restart_flow_databladeVALIDATION_Blade_19.dat|
|                                   |                     (8822.35 MB/s)|
|Paraview                           |volume_flow_databladeVALIDATION_Blade_19.vtu|
|                                   |                     (639.914 MB/s)|
|Paraview surface                   |surface_flowdatabladeVALIDATION_Blade_19.vtu|
|                                   |                     (68.1785 MB/s)|
|SU2 ASCII restart                  |restart_flow_databladeVALIDATION_Blade_19.csv|
|                                   |                     (19.4587 MB/s)|
|CSV file                           |surface_flowdatabladeVALIDATION_Blade_19.csv|
|                                   |                     (19.2604 MB/s)|
+-----------------------------------------------------------------------+
+--------------------------------------+
|  Inner_Iter|   Time(sec)|    rms[Rho]|
+--------------------------------------+
|        1410|  1.1357e-01|   -4.898613|
|        1420|  1.1371e-01|   -4.808455|
|        1430|  1.1346e-01|   -4.884539|
|        1440|  1.1315e-01|   -4.981551|
|        1450|  1.1334e-01|   -4.899997|
+-----------------------------------------------------------------------+
|        File Writing Summary       |              Filename             |
+-----------------------------------------------------------------------+
|SU2 binary restart                 |restart_flow_databladeVALIDATION_Blade_19.dat|
|                                   |                     (8976.57 MB/s)|
|Paraview                           |volume_flow_databladeVALIDATION_Blade_19.vtu|
|                                   |                     (347.037 MB/s)|
|Paraview surface                   |surface_flowdatabladeVALIDATION_Blade_19.vtu|
|                                   |                     (11.0559 MB/s)|
|SU2 ASCII restart                  |restart_flow_databladeVALIDATION_Blade_19.csv|
|                                   |                     (19.9591 MB/s)|
|CSV file                           |surface_flowdatabladeVALIDATION_Blade_19.csv|
|                                   |                     (7.91704 MB/s)|
+-----------------------------------------------------------------------+
+--------------------------------------+
|  Inner_Iter|   Time(sec)|    rms[Rho]|
+--------------------------------------+
|        1460|  1.1486e-01|   -4.875986|
|        1470|  1.1452e-01|   -5.016801|
|        1480|  1.1417e-01|   -5.072911|
|        1490|  1.1385e-01|   -5.012587|
|        1500|  1.1401e-01|   -5.026161|
+-----------------------------------------------------------------------+
|        File Writing Summary       |              Filename             |
+-----------------------------------------------------------------------+
|SU2 binary restart                 |restart_flow_databladeVALIDATION_Blade_19.dat|
|                                   |                     (11531.8 MB/s)|
|Paraview                           |volume_flow_databladeVALIDATION_Blade_19.vtu|
|                                   |                       (835.7 MB/s)|
|Paraview surface                   |surface_flowdatabladeVALIDATION_Blade_19.vtu|
|                                   |                     (92.8289 MB/s)|
|SU2 ASCII restart                  |restart_flow_databladeVALIDATION_Blade_19.csv|
|                                   |                     (20.1496 MB/s)|
|CSV file                           |surface_flowdatabladeVALIDATION_Blade_19.csv|
|                                   |                     (21.5859 MB/s)|
+-----------------------------------------------------------------------+
+--------------------------------------+
|  Inner_Iter|   Time(sec)|    rms[Rho]|
+--------------------------------------+
|        1510|  1.1522e-01|   -5.121281|
|        1520|  1.1487e-01|   -5.097967|
|        1530|  1.1459e-01|   -5.007726|
|        1540|  1.1426e-01|   -5.103515|
|        1550|  1.1390e-01|   -5.158894|
+-----------------------------------------------------------------------+
|        File Writing Summary       |              Filename             |
+-----------------------------------------------------------------------+
|SU2 binary restart                 |restart_flow_databladeVALIDATION_Blade_19.dat|
|                                   |                     (11473.2 MB/s)|
|Paraview                           |volume_flow_databladeVALIDATION_Blade_19.vtu|
|                                   |                     (1016.35 MB/s)|
|Paraview surface                   |surface_flowdatabladeVALIDATION_Blade_19.vtu|
|                                   |                     (103.108 MB/s)|
|SU2 ASCII restart                  |restart_flow_databladeVALIDATION_Blade_19.csv|
|                                   |                     (22.0989 MB/s)|
|CSV file                           |surface_flowdatabladeVALIDATION_Blade_19.csv|
|                                   |                     (21.0765 MB/s)|
+-----------------------------------------------------------------------+
+--------------------------------------+
|  Inner_Iter|   Time(sec)|    rms[Rho]|
+--------------------------------------+
|        1560|  1.1497e-01|   -5.105861|
|        1570|  1.1469e-01|   -5.080739|
|        1580|  1.1434e-01|   -5.177264|
|        1590|  1.1409e-01|   -5.136176|
|        1600|  1.1380e-01|   -5.100343|
+-----------------------------------------------------------------------+
|        File Writing Summary       |              Filename             |
+-----------------------------------------------------------------------+
|SU2 binary restart                 |restart_flow_databladeVALIDATION_Blade_19.dat|
|                                   |                       (12766 MB/s)|
|Paraview                           |volume_flow_databladeVALIDATION_Blade_19.vtu|
|                                   |                     (860.158 MB/s)|
|Paraview surface                   |surface_flowdatabladeVALIDATION_Blade_19.vtu|
|                                   |                     (100.654 MB/s)|
|SU2 ASCII restart                  |restart_flow_databladeVALIDATION_Blade_19.csv|
|                                   |                     (21.3831 MB/s)|
|CSV file                           |surface_flowdatabladeVALIDATION_Blade_19.csv|
|                                   |                     (19.8014 MB/s)|
+-----------------------------------------------------------------------+
+--------------------------------------+
|  Inner_Iter|   Time(sec)|    rms[Rho]|
+--------------------------------------+
|        1610|  1.1487e-01|   -5.176480|
|        1620|  1.1452e-01|   -5.229105|
|        1630|  1.1419e-01|   -5.180132|
|        1640|  1.1390e-01|   -5.193481|
|        1650|  1.1355e-01|   -5.236234|
+-----------------------------------------------------------------------+
|        File Writing Summary       |              Filename             |
+-----------------------------------------------------------------------+
|SU2 binary restart                 |restart_flow_databladeVALIDATION_Blade_19.dat|
|                                   |                     (10917.3 MB/s)|
|Paraview                           |volume_flow_databladeVALIDATION_Blade_19.vtu|
|                                   |                      (1006.4 MB/s)|
|Paraview surface                   |surface_flowdatabladeVALIDATION_Blade_19.vtu|
|                                   |                     (93.3971 MB/s)|
|SU2 ASCII restart                  |restart_flow_databladeVALIDATION_Blade_19.csv|
|                                   |                     (21.6305 MB/s)|
|CSV file                           |surface_flowdatabladeVALIDATION_Blade_19.csv|
|                                   |                     (19.9114 MB/s)|
+-----------------------------------------------------------------------+
+--------------------------------------+
|  Inner_Iter|   Time(sec)|    rms[Rho]|
+--------------------------------------+
|        1660|  1.1457e-01|   -5.237624|
|        1670|  1.1426e-01|   -5.224376|
|        1680|  1.1397e-01|   -5.250422|
|        1690|  1.1363e-01|   -5.267170|
|        1700|  1.1337e-01|   -5.206368|
+-----------------------------------------------------------------------+
|        File Writing Summary       |              Filename             |
+-----------------------------------------------------------------------+
|SU2 binary restart                 |restart_flow_databladeVALIDATION_Blade_19.dat|
|                                   |                     (12407.5 MB/s)|
|Paraview                           |volume_flow_databladeVALIDATION_Blade_19.vtu|
|                                   |                     (1017.78 MB/s)|
|Paraview surface                   |surface_flowdatabladeVALIDATION_Blade_19.vtu|
|                                   |                     (96.4961 MB/s)|
|SU2 ASCII restart                  |restart_flow_databladeVALIDATION_Blade_19.csv|
|                                   |                     (21.8021 MB/s)|
|CSV file                           |surface_flowdatabladeVALIDATION_Blade_19.csv|
|                                   |                     (22.2431 MB/s)|
+-----------------------------------------------------------------------+
+--------------------------------------+
|  Inner_Iter|   Time(sec)|    rms[Rho]|
+--------------------------------------+
|        1710|  1.1436e-01|   -5.285893|
|        1720|  1.1402e-01|   -5.300982|
|        1730|  1.1372e-01|   -5.313542|
|        1740|  1.1343e-01|   -5.315163|
|        1750|  1.1314e-01|   -5.354815|
+-----------------------------------------------------------------------+
|        File Writing Summary       |              Filename             |
+-----------------------------------------------------------------------+
|SU2 binary restart                 |restart_flow_databladeVALIDATION_Blade_19.dat|
|                                   |                       (12230 MB/s)|
|Paraview                           |volume_flow_databladeVALIDATION_Blade_19.vtu|
|                                   |                     (1036.24 MB/s)|
|Paraview surface                   |surface_flowdatabladeVALIDATION_Blade_19.vtu|
|                                   |                     (124.676 MB/s)|
|SU2 ASCII restart                  |restart_flow_databladeVALIDATION_Blade_19.csv|
|                                   |                     (21.3508 MB/s)|
|CSV file                           |surface_flowdatabladeVALIDATION_Blade_19.csv|
|                                   |                     (19.9428 MB/s)|
+-----------------------------------------------------------------------+
+--------------------------------------+
|  Inner_Iter|   Time(sec)|    rms[Rho]|
+--------------------------------------+
|        1760|  1.1411e-01|   -5.405046|
|        1770|  1.1389e-01|   -5.339543|
|        1780|  1.1358e-01|   -5.444736|
|        1790|  1.1330e-01|   -5.417113|
|        1800|  1.1302e-01|   -5.451177|
+-----------------------------------------------------------------------+
|        File Writing Summary       |              Filename             |
+-----------------------------------------------------------------------+
|SU2 binary restart                 |restart_flow_databladeVALIDATION_Blade_19.dat|
|                                   |                     (11994.4 MB/s)|
|Paraview                           |volume_flow_databladeVALIDATION_Blade_19.vtu|
|                                   |                     (1025.98 MB/s)|
|Paraview surface                   |surface_flowdatabladeVALIDATION_Blade_19.vtu|
|                                   |                     (80.4022 MB/s)|
|SU2 ASCII restart                  |restart_flow_databladeVALIDATION_Blade_19.csv|
|                                   |                      (21.409 MB/s)|
|CSV file                           |surface_flowdatabladeVALIDATION_Blade_19.csv|
|                                   |                     (21.4397 MB/s)|
+-----------------------------------------------------------------------+
+--------------------------------------+
|  Inner_Iter|   Time(sec)|    rms[Rho]|
+--------------------------------------+
|        1810|  1.1396e-01|   -5.449424|
|        1820|  1.1370e-01|   -5.361473|
|        1830|  1.1342e-01|   -5.426419|
|        1840|  1.1311e-01|   -5.471721|
|        1850|  1.1283e-01|   -5.448879|
+-----------------------------------------------------------------------+
|        File Writing Summary       |              Filename             |
+-----------------------------------------------------------------------+
|SU2 binary restart                 |restart_flow_databladeVALIDATION_Blade_19.dat|
|                                   |                     (12442.6 MB/s)|
|Paraview                           |volume_flow_databladeVALIDATION_Blade_19.vtu|
|                                   |                     (1055.74 MB/s)|
|Paraview surface                   |surface_flowdatabladeVALIDATION_Blade_19.vtu|
|                                   |                     (108.715 MB/s)|
|SU2 ASCII restart                  |restart_flow_databladeVALIDATION_Blade_19.csv|
|                                   |                     (22.0633 MB/s)|
|CSV file                           |surface_flowdatabladeVALIDATION_Blade_19.csv|
|                                   |                     (19.7049 MB/s)|
+-----------------------------------------------------------------------+
+--------------------------------------+
|  Inner_Iter|   Time(sec)|    rms[Rho]|
+--------------------------------------+
|        1860|  1.1374e-01|   -5.448820|
|        1870|  1.1346e-01|   -5.485508|
|        1880|  1.1316e-01|   -5.486389|
|        1890|  1.1293e-01|   -5.455753|
|        1900|  1.1267e-01|   -5.545228|
+-----------------------------------------------------------------------+
|        File Writing Summary       |              Filename             |
+-----------------------------------------------------------------------+
|SU2 binary restart                 |restart_flow_databladeVALIDATION_Blade_19.dat|
|                                   |                     (13231.7 MB/s)|
|Paraview                           |volume_flow_databladeVALIDATION_Blade_19.vtu|
|                                   |                     (1037.92 MB/s)|
|Paraview surface                   |surface_flowdatabladeVALIDATION_Blade_19.vtu|
|                                   |                     (88.1549 MB/s)|
|SU2 ASCII restart                  |restart_flow_databladeVALIDATION_Blade_19.csv|
|                                   |                     (21.4703 MB/s)|
|CSV file                           |surface_flowdatabladeVALIDATION_Blade_19.csv|
|                                   |                     (21.1213 MB/s)|
+-----------------------------------------------------------------------+
+--------------------------------------+
|  Inner_Iter|   Time(sec)|    rms[Rho]|
+--------------------------------------+
|        1910|  1.1354e-01|   -5.549563|
|        1920|  1.1327e-01|   -5.569305|
|        1930|  1.1304e-01|   -5.564731|
|        1940|  1.1285e-01|   -5.568610|
|        1950|  1.1265e-01|   -5.567629|
+-----------------------------------------------------------------------+
|        File Writing Summary       |              Filename             |
+-----------------------------------------------------------------------+
|SU2 binary restart                 |restart_flow_databladeVALIDATION_Blade_19.dat|
|                                   |                     (11969.9 MB/s)|
|Paraview                           |volume_flow_databladeVALIDATION_Blade_19.vtu|
|                                   |                     (1053.36 MB/s)|
|Paraview surface                   |surface_flowdatabladeVALIDATION_Blade_19.vtu|
|                                   |                     (122.224 MB/s)|
|SU2 ASCII restart                  |restart_flow_databladeVALIDATION_Blade_19.csv|
|                                   |                     (21.4694 MB/s)|
|CSV file                           |surface_flowdatabladeVALIDATION_Blade_19.csv|
|                                   |                     (19.6905 MB/s)|
+-----------------------------------------------------------------------+
+--------------------------------------+
|  Inner_Iter|   Time(sec)|    rms[Rho]|
+--------------------------------------+
|        1960|  1.1361e-01|   -5.587286|
|        1970|  1.1333e-01|   -5.675112|
|        1980|  1.1306e-01|   -5.628438|
|        1990|  1.1285e-01|   -5.652307|
|        2000|  1.1257e-01|   -5.735790|
+-----------------------------------------------------------------------+
|        File Writing Summary       |              Filename             |
+-----------------------------------------------------------------------+
|SU2 binary restart                 |restart_flow_databladeVALIDATION_Blade_19.dat|
|                                   |                     (12191.3 MB/s)|
|Paraview                           |volume_flow_databladeVALIDATION_Blade_19.vtu|
|                                   |                      (1023.6 MB/s)|
|Paraview surface                   |surface_flowdatabladeVALIDATION_Blade_19.vtu|
|                                   |                     (85.4127 MB/s)|
|SU2 ASCII restart                  |restart_flow_databladeVALIDATION_Blade_19.csv|
|                                   |                     (21.8766 MB/s)|
|CSV file                           |surface_flowdatabladeVALIDATION_Blade_19.csv|
|                                   |                     (20.7891 MB/s)|
+-----------------------------------------------------------------------+
+--------------------------------------+
|  Inner_Iter|   Time(sec)|    rms[Rho]|
+--------------------------------------+
|        2010|  1.1339e-01|   -5.742361|
|        2020|  1.1315e-01|   -5.752503|
|        2030|  1.1291e-01|   -5.793685|
|        2040|  1.1263e-01|   -5.822710|
|        2050|  1.1238e-01|   -5.816811|
+-----------------------------------------------------------------------+
|        File Writing Summary       |              Filename             |
+-----------------------------------------------------------------------+
|SU2 binary restart                 |restart_flow_databladeVALIDATION_Blade_19.dat|
|                                   |                     (11622.4 MB/s)|
|Paraview                           |volume_flow_databladeVALIDATION_Blade_19.vtu|
|                                   |                     (1052.83 MB/s)|
|Paraview surface                   |surface_flowdatabladeVALIDATION_Blade_19.vtu|
|                                   |                     (104.289 MB/s)|
|SU2 ASCII restart                  |restart_flow_databladeVALIDATION_Blade_19.csv|
|                                   |                     (21.4856 MB/s)|
|CSV file                           |surface_flowdatabladeVALIDATION_Blade_19.csv|
|                                   |                     (21.0149 MB/s)|
+-----------------------------------------------------------------------+
+--------------------------------------+
|  Inner_Iter|   Time(sec)|    rms[Rho]|
+--------------------------------------+
|        2060|  1.1327e-01|   -5.763192|
|        2070|  1.1300e-01|   -5.838002|
|        2080|  1.1275e-01|   -5.790677|
|        2090|  1.1254e-01|   -5.747043|
|        2100|  1.1229e-01|   -5.802555|
+-----------------------------------------------------------------------+
|        File Writing Summary       |              Filename             |
+-----------------------------------------------------------------------+
|SU2 binary restart                 |restart_flow_databladeVALIDATION_Blade_19.dat|
|                                   |                     (12466.2 MB/s)|
|Paraview                           |volume_flow_databladeVALIDATION_Blade_19.vtu|
|                                   |                     (1113.16 MB/s)|
|Paraview surface                   |surface_flowdatabladeVALIDATION_Blade_19.vtu|
|                                   |                     (135.274 MB/s)|
|SU2 ASCII restart                  |restart_flow_databladeVALIDATION_Blade_19.csv|
|                                   |                      (21.817 MB/s)|
|CSV file                           |surface_flowdatabladeVALIDATION_Blade_19.csv|
|                                   |                      (21.865 MB/s)|
+-----------------------------------------------------------------------+
+--------------------------------------+
|  Inner_Iter|   Time(sec)|    rms[Rho]|
+--------------------------------------+
|        2110|  1.1309e-01|   -5.825870|
|        2120|  1.1284e-01|   -5.835704|
|        2130|  1.1263e-01|   -5.846293|
|        2140|  1.1237e-01|   -5.928139|
|        2150|  1.1211e-01|   -5.924091|
+-----------------------------------------------------------------------+
|        File Writing Summary       |              Filename             |
+-----------------------------------------------------------------------+
|SU2 binary restart                 |restart_flow_databladeVALIDATION_Blade_19.dat|
|                                   |                     (10451.9 MB/s)|
|Paraview                           |volume_flow_databladeVALIDATION_Blade_19.vtu|
|                                   |                     (1033.47 MB/s)|
|Paraview surface                   |surface_flowdatabladeVALIDATION_Blade_19.vtu|
|                                   |                     (107.994 MB/s)|
|SU2 ASCII restart                  |restart_flow_databladeVALIDATION_Blade_19.csv|
|                                   |                     (21.6755 MB/s)|
|CSV file                           |surface_flowdatabladeVALIDATION_Blade_19.csv|
|                                   |                     (21.5521 MB/s)|
+-----------------------------------------------------------------------+
+--------------------------------------+
|  Inner_Iter|   Time(sec)|    rms[Rho]|
+--------------------------------------+
|        2160|  1.1291e-01|   -5.897969|
|        2170|  1.1269e-01|   -5.961110|
|        2180|  1.1244e-01|   -5.958910|
|        2190|  1.1220e-01|   -5.903897|
|        2200|  1.1199e-01|   -5.969457|
+-----------------------------------------------------------------------+
|        File Writing Summary       |              Filename             |
+-----------------------------------------------------------------------+
|SU2 binary restart                 |restart_flow_databladeVALIDATION_Blade_19.dat|
|                                   |                     (11260.8 MB/s)|
|Paraview                           |volume_flow_databladeVALIDATION_Blade_19.vtu|
|                                   |                     (1067.71 MB/s)|
|Paraview surface                   |surface_flowdatabladeVALIDATION_Blade_19.vtu|
|                                   |                     (102.967 MB/s)|
|SU2 ASCII restart                  |restart_flow_databladeVALIDATION_Blade_19.csv|
|                                   |                     (21.7144 MB/s)|
|CSV file                           |surface_flowdatabladeVALIDATION_Blade_19.csv|
|                                   |                     (20.6504 MB/s)|
+-----------------------------------------------------------------------+
+--------------------------------------+
|  Inner_Iter|   Time(sec)|    rms[Rho]|
+--------------------------------------+
|        2210|  1.1274e-01|   -6.031911|
|        2220|  1.1251e-01|   -5.939216|
|        2230|  1.1229e-01|   -5.949883|
|        2240|  1.1207e-01|   -6.060165|
|        2250|  1.1184e-01|   -6.023534|
+-----------------------------------------------------------------------+
|        File Writing Summary       |              Filename             |
+-----------------------------------------------------------------------+
|SU2 binary restart                 |restart_flow_databladeVALIDATION_Blade_19.dat|
|                                   |                     (12025.4 MB/s)|
|Paraview                           |volume_flow_databladeVALIDATION_Blade_19.vtu|
|                                   |                     (1006.05 MB/s)|
|Paraview surface                   |surface_flowdatabladeVALIDATION_Blade_19.vtu|
|                                   |                     (95.6652 MB/s)|
|SU2 ASCII restart                  |restart_flow_databladeVALIDATION_Blade_19.csv|
|                                   |                     (22.1744 MB/s)|
|CSV file                           |surface_flowdatabladeVALIDATION_Blade_19.csv|
|                                   |                     (20.9709 MB/s)|
+-----------------------------------------------------------------------+
+--------------------------------------+
|  Inner_Iter|   Time(sec)|    rms[Rho]|
+--------------------------------------+
|        2260|  1.1257e-01|   -5.949649|
|        2270|  1.1236e-01|   -5.958060|
|        2280|  1.1213e-01|   -6.066054|
|        2290|  1.1190e-01|   -5.985082|
|        2300|  1.1168e-01|   -5.970374|
+-----------------------------------------------------------------------+
|        File Writing Summary       |              Filename             |
+-----------------------------------------------------------------------+
|SU2 binary restart                 |restart_flow_databladeVALIDATION_Blade_19.dat|
|                                   |                     (11212.9 MB/s)|
|Paraview                           |volume_flow_databladeVALIDATION_Blade_19.vtu|
|                                   |                     (1118.98 MB/s)|
|Paraview surface                   |surface_flowdatabladeVALIDATION_Blade_19.vtu|
|                                   |                     (100.881 MB/s)|
|SU2 ASCII restart                  |restart_flow_databladeVALIDATION_Blade_19.csv|
|                                   |                     (21.8298 MB/s)|
|CSV file                           |surface_flowdatabladeVALIDATION_Blade_19.csv|
|                                   |                     (20.4546 MB/s)|
+-----------------------------------------------------------------------+
+--------------------------------------+
|  Inner_Iter|   Time(sec)|    rms[Rho]|
+--------------------------------------+
|        2310|  1.1243e-01|   -6.043507|
|        2320|  1.1219e-01|   -6.061490|
|        2330|  1.1198e-01|   -6.022761|
|        2340|  1.1177e-01|   -6.045915|
|        2350|  1.1155e-01|   -6.110202|
+-----------------------------------------------------------------------+
|        File Writing Summary       |              Filename             |
+-----------------------------------------------------------------------+
|SU2 binary restart                 |restart_flow_databladeVALIDATION_Blade_19.dat|
|                                   |                     (14434.4 MB/s)|
|Paraview                           |volume_flow_databladeVALIDATION_Blade_19.vtu|
[...]
+-----------------------------------------------------------------------+
|SU2 binary restart                 |restart_flow_databladeVALIDATION_Blade_19.dat|
|                                   |                     (11843.5 MB/s)|
|Paraview                           |volume_flow_databladeVALIDATION_Blade_19.vtu|
|                                   |                      (1052.5 MB/s)|
|Paraview surface                   |surface_flowdatabladeVALIDATION_Blade_19.vtu|
|                                   |                     (102.809 MB/s)|
|SU2 ASCII restart                  |restart_flow_databladeVALIDATION_Blade_19.csv|
|                                   |                     (22.1005 MB/s)|
|CSV file                           |surface_flowdatabladeVALIDATION_Blade_19.csv|
|                                   |                      (21.949 MB/s)|
+-----------------------------------------------------------------------+
+--------------------------------------+
|  Inner_Iter|   Time(sec)|    rms[Rho]|
+--------------------------------------+
|        2710|  1.1160e-01|   -6.401219|
|        2720|  1.1140e-01|   -6.470281|
|        2730|  1.1121e-01|   -6.479011|
|        2740|  1.1107e-01|   -6.441241|
|        2750|  1.1087e-01|   -6.539966|
+-----------------------------------------------------------------------+
|        File Writing Summary       |              Filename             |
+-----------------------------------------------------------------------+
|SU2 binary restart                 |restart_flow_databladeVALIDATION_Blade_19.dat|
|                                   |                     (11343.2 MB/s)|
|Paraview                           |volume_flow_databladeVALIDATION_Blade_19.vtu|
|                                   |                     (1061.11 MB/s)|
|Paraview surface                   |surface_flowdatabladeVALIDATION_Blade_19.vtu|
|                                   |                     (110.676 MB/s)|
|SU2 ASCII restart                  |restart_flow_databladeVALIDATION_Blade_19.csv|
|                                   |                     (21.3945 MB/s)|
|CSV file                           |surface_flowdatabladeVALIDATION_Blade_19.csv|
|                                   |                     (19.8121 MB/s)|
+-----------------------------------------------------------------------+
+--------------------------------------+
|  Inner_Iter|   Time(sec)|    rms[Rho]|
+--------------------------------------+
|        2760|  1.1152e-01|   -6.534581|
|        2770|  1.1135e-01|   -6.565267|
|        2780|  1.1115e-01|   -6.601570|
|        2790|  1.1096e-01|   -6.603184|
|        2800|  1.1082e-01|   -6.572438|
+-----------------------------------------------------------------------+
|        File Writing Summary       |              Filename             |
+-----------------------------------------------------------------------+
|SU2 binary restart                 |restart_flow_databladeVALIDATION_Blade_19.dat|
|                                   |                     (12788.7 MB/s)|
|Paraview                           |volume_flow_databladeVALIDATION_Blade_19.vtu|
|                                   |                     (1034.96 MB/s)|
|Paraview surface                   |surface_flowdatabladeVALIDATION_Blade_19.vtu|
|                                   |                     (93.5094 MB/s)|
|SU2 ASCII restart                  |restart_flow_databladeVALIDATION_Blade_19.csv|
|                                   |                     (21.4157 MB/s)|
|CSV file                           |surface_flowdatabladeVALIDATION_Blade_19.csv|
|                                   |                     (22.2963 MB/s)|
+-----------------------------------------------------------------------+
+--------------------------------------+
|  Inner_Iter|   Time(sec)|    rms[Rho]|
+--------------------------------------+
|        2810|  1.1142e-01|   -6.643038|
|        2820|  1.1123e-01|   -6.638002|
|        2830|  1.1107e-01|   -6.598124|
|        2840|  1.1090e-01|   -6.637002|
|        2850|  1.1072e-01|   -6.677082|
+-----------------------------------------------------------------------+
|        File Writing Summary       |              Filename             |
+-----------------------------------------------------------------------+
|SU2 binary restart                 |restart_flow_databladeVALIDATION_Blade_19.dat|
|                                   |                     (12259.4 MB/s)|
|Paraview                           |volume_flow_databladeVALIDATION_Blade_19.vtu|
|                                   |                     (1070.68 MB/s)|
|Paraview surface                   |surface_flowdatabladeVALIDATION_Blade_19.vtu|
|                                   |                     (132.918 MB/s)|
|SU2 ASCII restart                  |restart_flow_databladeVALIDATION_Blade_19.csv|
|                                   |                     (22.1018 MB/s)|
|CSV file                           |surface_flowdatabladeVALIDATION_Blade_19.csv|
|                                   |                     (22.0277 MB/s)|
+-----------------------------------------------------------------------+
+--------------------------------------+
|  Inner_Iter|   Time(sec)|    rms[Rho]|
+--------------------------------------+
|        2860|  1.1130e-01|   -6.631368|
|        2870|  1.1114e-01|   -6.613449|
|        2880|  1.1096e-01|   -6.699986|
|        2890|  1.1079e-01|   -6.671391|
|        2900|  1.1063e-01|   -6.645436|
+-----------------------------------------------------------------------+
|        File Writing Summary       |              Filename             |
+-----------------------------------------------------------------------+
|SU2 binary restart                 |restart_flow_databladeVALIDATION_Blade_19.dat|
|                                   |                       (11998 MB/s)|
|Paraview                           |volume_flow_databladeVALIDATION_Blade_19.vtu|
|                                   |                      (967.93 MB/s)|
|Paraview surface                   |surface_flowdatabladeVALIDATION_Blade_19.vtu|
|                                   |                     (110.946 MB/s)|
|SU2 ASCII restart                  |restart_flow_databladeVALIDATION_Blade_19.csv|
|                                   |                     (21.5963 MB/s)|
|CSV file                           |surface_flowdatabladeVALIDATION_Blade_19.csv|
|                                   |                     (22.2054 MB/s)|
+-----------------------------------------------------------------------+
+--------------------------------------+
|  Inner_Iter|   Time(sec)|    rms[Rho]|
+--------------------------------------+
|        2910|  1.1123e-01|   -6.686327|
|        2920|  1.1105e-01|   -6.714162|
|        2930|  1.1089e-01|   -6.686471|
|        2940|  1.1074e-01|   -6.681420|
|        2950|  1.1056e-01|   -6.731561|
+-----------------------------------------------------------------------+
|        File Writing Summary       |              Filename             |
+-----------------------------------------------------------------------+
|SU2 binary restart                 |restart_flow_databladeVALIDATION_Blade_19.dat|
|                                   |                     (14251.1 MB/s)|
|Paraview                           |volume_flow_databladeVALIDATION_Blade_19.vtu|
|                                   |                     (1029.43 MB/s)|
|Paraview surface                   |surface_flowdatabladeVALIDATION_Blade_19.vtu|
|                                   |                      (102.66 MB/s)|
|SU2 ASCII restart                  |restart_flow_databladeVALIDATION_Blade_19.csv|
|                                   |                     (21.6767 MB/s)|
|CSV file                           |surface_flowdatabladeVALIDATION_Blade_19.csv|
|                                   |                     (22.5519 MB/s)|
+-----------------------------------------------------------------------+
+--------------------------------------+
|  Inner_Iter|   Time(sec)|    rms[Rho]|
+--------------------------------------+
|        2960|  1.1119e-01|   -6.717486|
|        2970|  1.1108e-01|   -6.732372|
|        2980|  1.1095e-01|   -6.742211|
|        2990|  1.1082e-01|   -6.741760|
|        3000|  1.1065e-01|   -6.781495|
+-----------------------------------------------------------------------+
|        File Writing Summary       |              Filename             |
+-----------------------------------------------------------------------+
|SU2 binary restart                 |restart_flow_databladeVALIDATION_Blade_19.dat|
|                                   |                     (11716.3 MB/s)|
|Paraview                           |volume_flow_databladeVALIDATION_Blade_19.vtu|
|                                   |                     (1035.09 MB/s)|
|Paraview surface                   |surface_flowdatabladeVALIDATION_Blade_19.vtu|
|                                   |                     (99.3063 MB/s)|
|SU2 ASCII restart                  |restart_flow_databladeVALIDATION_Blade_19.csv|
|                                   |                     (21.6268 MB/s)|
|CSV file                           |surface_flowdatabladeVALIDATION_Blade_19.csv|
|                                   |                     (21.7374 MB/s)|
+-----------------------------------------------------------------------+
+--------------------------------------+
|  Inner_Iter|   Time(sec)|    rms[Rho]|
+--------------------------------------+
|        3010|  1.1121e-01|   -6.798728|
|        3020|  1.1105e-01|   -6.796024|
|        3030|  1.1092e-01|   -6.784870|
|        3040|  1.1075e-01|   -6.835906|
|        3050|  1.1059e-01|   -6.856522|
+-----------------------------------------------------------------------+
|        File Writing Summary       |              Filename             |
+-----------------------------------------------------------------------+
|SU2 binary restart                 |restart_flow_databladeVALIDATION_Blade_19.dat|
|                                   |                     (11039.2 MB/s)|
|Paraview                           |volume_flow_databladeVALIDATION_Blade_19.vtu|
|                                   |                     (1079.32 MB/s)|
|Paraview surface                   |surface_flowdatabladeVALIDATION_Blade_19.vtu|
|                                   |                     (102.398 MB/s)|
|SU2 ASCII restart                  |restart_flow_databladeVALIDATION_Blade_19.csv|
|                                   |                     (21.3447 MB/s)|
|CSV file                           |surface_flowdatabladeVALIDATION_Blade_19.csv|
|                                   |                     (19.8495 MB/s)|
+-----------------------------------------------------------------------+
+--------------------------------------+
|  Inner_Iter|   Time(sec)|    rms[Rho]|
+--------------------------------------+
|        3060|  1.1118e-01|   -6.852937|
|        3070|  1.1102e-01|   -6.880516|
|        3080|  1.1084e-01|   -6.900442|
|        3090|  1.1068e-01|   -6.900486|
|        3100|  1.1053e-01|   -6.899533|
+-----------------------------------------------------------------------+
|        File Writing Summary       |              Filename             |
+-----------------------------------------------------------------------+
|SU2 binary restart                 |restart_flow_databladeVALIDATION_Blade_19.dat|
|                                   |                     (11697.2 MB/s)|
|Paraview                           |volume_flow_databladeVALIDATION_Blade_19.vtu|
|                                   |                     (1044.02 MB/s)|
|Paraview surface                   |surface_flowdatabladeVALIDATION_Blade_19.vtu|
|                                   |                     (107.926 MB/s)|
|SU2 ASCII restart                  |restart_flow_databladeVALIDATION_Blade_19.csv|
|                                   |                     (21.7238 MB/s)|
|CSV file                           |surface_flowdatabladeVALIDATION_Blade_19.csv|
|                                   |                     (19.6786 MB/s)|
+-----------------------------------------------------------------------+
+--------------------------------------+
|  Inner_Iter|   Time(sec)|    rms[Rho]|
+--------------------------------------+
|        3110|  1.1109e-01|   -6.915460|
|        3120|  1.1091e-01|   -6.925280|
|        3130|  1.1076e-01|   -6.912798|
|        3140|  1.1063e-01|   -6.901712|
|        3150|  1.1046e-01|   -6.939552|
+-----------------------------------------------------------------------+
|        File Writing Summary       |              Filename             |
+-----------------------------------------------------------------------+
|SU2 binary restart                 |restart_flow_databladeVALIDATION_Blade_19.dat|
|                                   |                     (12403.6 MB/s)|
|Paraview                           |volume_flow_databladeVALIDATION_Blade_19.vtu|
|                                   |                     (1059.22 MB/s)|
|Paraview surface                   |surface_flowdatabladeVALIDATION_Blade_19.vtu|
|                                   |                      (107.84 MB/s)|
|SU2 ASCII restart                  |restart_flow_databladeVALIDATION_Blade_19.csv|
|                                   |                     (21.4915 MB/s)|
|CSV file                           |surface_flowdatabladeVALIDATION_Blade_19.csv|
|                                   |                     (22.0567 MB/s)|
+-----------------------------------------------------------------------+
+--------------------------------------+
|  Inner_Iter|   Time(sec)|    rms[Rho]|
+--------------------------------------+
|        3160|  1.1101e-01|   -6.933895|
|        3170|  1.1087e-01|   -6.910809|
|        3180|  1.1071e-01|   -6.956365|
|        3190|  1.1054e-01|   -6.962994|
|        3200|  1.1039e-01|   -6.948232|
+-----------------------------------------------------------------------+
|        File Writing Summary       |              Filename             |
+-----------------------------------------------------------------------+
|SU2 binary restart                 |restart_flow_databladeVALIDATION_Blade_19.dat|
|                                   |                     (12472.1 MB/s)|
|Paraview                           |volume_flow_databladeVALIDATION_Blade_19.vtu|
|                                   |                     (920.877 MB/s)|
|Paraview surface                   |surface_flowdatabladeVALIDATION_Blade_19.vtu|
|                                   |                     (90.1155 MB/s)|
|SU2 ASCII restart                  |restart_flow_databladeVALIDATION_Blade_19.csv|
|                                   |                     (21.4533 MB/s)|
|CSV file                           |surface_flowdatabladeVALIDATION_Blade_19.csv|
|                                   |                     (19.3295 MB/s)|
+-----------------------------------------------------------------------+
+--------------------------------------+
|  Inner_Iter|   Time(sec)|    rms[Rho]|
+--------------------------------------+
|        3210|  1.1096e-01|   -6.944674|
|        3220|  1.1082e-01|   -6.948274|
|        3230|  1.1068e-01|   -6.959627|
|        3240|  1.1050e-01|   -6.975045|
|        3250|  1.1039e-01|   -6.965924|
+-----------------------------------------------------------------------+
|        File Writing Summary       |              Filename             |
+-----------------------------------------------------------------------+
|SU2 binary restart                 |restart_flow_databladeVALIDATION_Blade_19.dat|
|                                   |                       (13497 MB/s)|
|Paraview                           |volume_flow_databladeVALIDATION_Blade_19.vtu|
|                                   |                     (1077.48 MB/s)|
|Paraview surface                   |surface_flowdatabladeVALIDATION_Blade_19.vtu|
|                                   |                     (96.7906 MB/s)|
|SU2 ASCII restart                  |restart_flow_databladeVALIDATION_Blade_19.csv|
|                                   |                     (21.1762 MB/s)|
|CSV file                           |surface_flowdatabladeVALIDATION_Blade_19.csv|
|                                   |                      (20.086 MB/s)|
+-----------------------------------------------------------------------+
+--------------------------------------+
|  Inner_Iter|   Time(sec)|    rms[Rho]|
+--------------------------------------+
|        3260|  1.1098e-01|   -6.969419|
|        3270|  1.1082e-01|   -6.991855|
|        3280|  1.1066e-01|   -6.994968|
|        3283|  1.1062e-01|   -7.000580|

----------------------------- Solver Exit -------------------------------
All convergence criteria satisfied.
+-----------------------------------------------------------------------+
|      Convergence Field     |     Value    |   Criterion  |  Converged |
+-----------------------------------------------------------------------+
|                    rms[Rho]|      -7.00058|          < -7|         Yes|
+-----------------------------------------------------------------------+
-------------------------------------------------------------------------
+-----------------------------------------------------------------------+
|        File Writing Summary       |              Filename             |
+-----------------------------------------------------------------------+
|SU2 binary restart                 |restart_flow_databladeVALIDATION_Blade_19.dat|
|                                   |                     (13768.5 MB/s)|
|Paraview                           |volume_flow_databladeVALIDATION_Blade_19.vtu|
|                                   |                     (1014.27 MB/s)|
|Paraview surface                   |surface_flowdatabladeVALIDATION_Blade_19.vtu|
|                                   |                     (122.484 MB/s)|
|SU2 ASCII restart                  |restart_flow_databladeVALIDATION_Blade_19.csv|
|                                   |                     (21.1201 MB/s)|
|CSV file                           |surface_flowdatabladeVALIDATION_Blade_19.csv|
|                                   |                     (21.1513 MB/s)|
+-----------------------------------------------------------------------+

--------------------------- Finalizing Solver ---------------------------
Deleted CNumerics container.
Deleted CIntegration container.
Deleted CSolver container.
Deleted CIteration container.
Deleted CInterface container.
Deleted CGeometry container.
Deleted CFreeFormDefBox class.
Deleted CSurfaceMovement class.
Deleted CVolumetricMovement class.
Deleted CConfig container.
Deleted nInst container.
Deleted COutput class.
-------------------------------------------------------------------------


-------------------------- Performance Summary --------------------------
Simulation totals:
   Wall-clock time (hrs):    0.101661 |            Core-hrs:     1.21993
                   Cores:          12 |          DOFs/point:           5
             Points/core:     4988.17 |   Ghost points/core:     150.667
 Ghost/Owned Point Ratio:   0.0302048 | 

Preprocessing phase:
       Preproc. Time (s):    0.421023 |   Preproc. Time (%):     0.11504

Compute phase:
        Compute Time (s):     363.275 |    Compute Time (%):     99.2612
         Iteration count:        3284 |         Avg. s/iter:     0.11062
     Core-s/iter/Mpoints:     21.5262 |           Mpoints/s:     0.55746

Output phase:
         Output Time (s):     2.28276 |     Output Time (%):    0.623741
            Output count:           1 |       Avg. s/output:     2.28276
 Restart Aggr. BW (MB/s):      786033 |           MB/s/core:     65502.7
-------------------------------------------------------------------------


------------------------- Exit Success (SU2_CFD) ------------------------

