
-------------------------------------------------------------------------
|    ___ _   _ ___                                                      |
|   / __| | | |_  )   Release 8.0.1 "Harrier"                           |
|   \__ \ |_| |/ /                                                      |
|   |___/\___//___|   Suite (Computational Fluid Dynamics Code)         |
|                                                                       |
-------------------------------------------------------------------------
| SU2 Project Website: https://su2code.github.io                        |
|                                                                       |
| The SU2 Project is maintained by the SU2 Foundation                   |
| (http://su2foundation.org)                                            |
-------------------------------------------------------------------------
| Copyright 2012-2024, SU2 Contributors                                 |
|                                                                       |
| SU2 is free software; you can redistribute it and/or                  |
| modify it under the terms of the GNU Lesser General Public            |
| License as published by the Free Software Foundation; either          |
| version 2.1 of the License, or (at your option) any later version.    |
|                                                                       |
| SU2 is distributed in the hope that it will be useful,                |
| but WITHOUT ANY WARRANTY; without even the implied warranty of        |
| MERCHANTABILITY or FITNESS FOR A PARTICULAR PURPOSE. See the GNU      |
| Lesser General Public License for more details.                       |
|                                                                       |
| You should have received a copy of the GNU Lesser General Public      |
| License along with SU2. If not, see <http://www.gnu.org/licenses/>.   |
-------------------------------------------------------------------------

Parsing config file for zone 0

----------------- Physical Case Definition ( Zone 0 ) -------------------
Compressible RANS equations.
Turbulence model: Spalart-Allmaras-noft2-BCM
Hybrid RANS/LES: No Hybrid RANS/LES
Mach number: 0.6.
Angle of attack (AoA): -40 deg, and angle of sideslip (AoS): 0 deg.
Reynolds number: 600000. Reference length 1.00144.
No restart solution, use the values at infinity (freestream).
Dimensional simulation.
The reference area will be computed using y(2D) or z(3D) projection.
The semi-span will be computed using the max y(3D) value.
The reference length is 1.00144 m.
Reference origin for moment evaluation is (0, 0, 0).
Surface(s) where the force coefficients are evaluated: blade1.

Surface(s) plotted in the output file: blade1.
Surface(s) to be analyzed in detail: inlet, outlet, blade1.
Input mesh file name: cascade2D_databladeVALIDATION_Blade_4.su2

--------------- Space Numerical Integration ( Zone 0 ) ------------------
Jameson-Schmidt-Turkel scheme (2nd order in space) for the flow inviscid terms.
JST viscous coefficients (2nd & 4th): 0.5, 0.02.
The method includes a grid stretching correction (p = 0.3).
Scalar upwind solver for the turbulence model.
First order integration in space.
Average of gradients with correction (viscous flow terms).
Average of gradients with correction (viscous turbulence terms).
Gradient for upwind reconstruction: inverse-distance weighted Least-Squares.
Gradient for viscous and source terms: inverse-distance weighted Least-Squares.

--------------- Time Numerical Integration  ( Zone 0 ) ------------------
Local time stepping (steady state simulation).
Euler implicit method for the flow equations.
FGMRES is used for solving the linear system.
Using a LU-SGS preconditioning.
Convergence criteria of the linear solver: 0.0001.
Max number of linear iterations: 10.
V Multigrid Cycle, with 3 multigrid levels.
Damping factor for the residual restriction: 0.75.
Damping factor for the correction prolongation: 0.75.
CFL adaptation. Factor down: 0.1, factor up: 1.2,
                lower limit: 0.1, upper limit: 100,
                acceptable linear residual: 0.001.
+-------------------------------------------+
|  MG Level| Presmooth|PostSmooth|CorrectSmo|
+-------------------------------------------+
|         0|         1|         0|         1|
|         1|         2|         2|         2|
|         2|         3|         3|         3|
|         3|         3|         0|         0|
+-------------------------------------------+
Courant-Friedrichs-Lewy number:       12
Euler implicit time integration for the turbulence model.

------------------ Convergence Criteria  ( Zone 0 ) ---------------------
Maximum number of solver subiterations: 7000.
Begin convergence monitoring at iteration 500.
Residual minimum value: 1e-7.
Cauchy series min. value: 1e-10.
Number of Cauchy elements: 100.
Begin windowed time average at iteration 0.

-------------------- Output Information ( Zone 0 ) ----------------------
File writing frequency: 
+------------------------------------+
|                     File| Frequency|
+------------------------------------+
|                  RESTART|        50|
|                 PARAVIEW|        50|
|         SURFACE_PARAVIEW|        50|
|                      CSV|        50|
|              SURFACE_CSV|        50|
+------------------------------------+
Writing the convergence history file every 1 inner iterations.
Writing the screen convergence history every 10 inner iterations.
The tabular file format is CSV (.csv).
Convergence history file name: history_databladeVALIDATION_Blade_4.
Forces breakdown file name: forces_breakdown.dat.
Surface file name: surface_flowdatabladeVALIDATION_Blade_4.
Volume file name: volume_flow_databladeVALIDATION_Blade_4.
Restart file name: restart_flow_databladeVALIDATION_Blade_4.dat.

------------- Config File Boundary Information ( Zone 0 ) ---------------
+-----------------------------------------------------------------------+
|                        Marker Type|                        Marker Name|
+-----------------------------------------------------------------------+
|                  Periodic boundary|               symmetricWallsBOTTOM|
|                                   |                  symmetricWallsTOP|
+-----------------------------------------------------------------------+
|                     Inlet boundary|                              inlet|
+-----------------------------------------------------------------------+
|                    Outlet boundary|                             outlet|
+-----------------------------------------------------------------------+
|                     Heat flux wall|                             blade1|
|                                   |                             blade2|
+-----------------------------------------------------------------------+

-------------------- Output Preprocessing ( Zone 0 ) --------------------
  Info: Ignoring the following screen output fields:
  LINSOL_ITER_TRANS, LINSOL_RESIDUAL_TRANS
Screen output fields: INNER_ITER, WALL_TIME, RMS_DENSITY
  Info: Ignoring the following history output groups:
  RMS_TKE, RMS_DISSIPATION
History output group(s): INNER_ITER, WALL_TIME, RMS_DENSITY, RMS_MOMENTUM-X, RMS_ENERGY, LINSOL, CFL_NUMBER, FLOW_COEFF_SURF, AERO_COEFF_SURF
Convergence field(s): RMS_DENSITY
Warning: No (valid) fields chosen for time convergence monitoring. Time convergence monitoring inactive.
Volume output fields: COORDINATES, SOLUTION, PRIMITIVE, RESIDUAL, TIMESTEP, MESH_QUALITY, VORTEX_IDENTIFICATION

------------------- Geometry Preprocessing ( Zone 0 ) -------------------
Two dimensional problem.
60023 grid points before partitioning.
89686 volume elements before partitioning.
5 surface markers.
26 boundary elements in index 0 (Marker = inlet).
329 boundary elements in index 1 (Marker = symmetricWallsBOTTOM).
329 boundary elements in index 2 (Marker = symmetricWallsTOP).
26 boundary elements in index 3 (Marker = outlet).
1186 boundary elements in index 4 (Marker = blade1).
Executing the partitioning functions.
Building the graph adjacency structure.
Calling ParMETIS... graph partitioning complete (1455 edge cuts).
Distributing ParMETIS coloring.
Rebalancing vertices.
Rebalancing volume element connectivity.
Rebalancing markers and surface elements.
61868 vertices including ghost points. 
91130 interior elements including halo cells. 
62289 triangles.
28841 quadrilaterals.
Establishing MPI communication patterns.
Setting point connectivity.
Renumbering points (Reverse Cuthill McKee Ordering).
Recomputing point connectivity.
Setting element connectivity.
Checking the numerical grid orientation.
All volume elements are correctly orientend.
There has been a re-orientation of 959 LINE surface elements.
Identifying edges and vertices.
Setting the control volume structure.
Area of the computational grid: 3.3786.
Searching for the closest normal neighbors to the surfaces.
Storing a mapping from global to local point index.
Compute the surface curvature.
Max K: 134.12. Mean K: 4.12541. Standard deviation K: 14.0552.
Checking for periodicity.
WARNING: Periodicity has been detected. Disabling multigrid. 
Computing mesh quality statistics for the dual control volumes.
+--------------------------------------------------------------+
|           Mesh Quality Metric|        Minimum|        Maximum|
+--------------------------------------------------------------+
|    Orthogonality Angle (deg.)|         46.085|             90|
|     CV Face Area Aspect Ratio|        1.00016|        291.783|
|           CV Sub-Volume Ratio|              1|        26.4979|
+--------------------------------------------------------------+
Finding max control volume width.
Communicating number of neighbors.
Reference length = 1.02121 m.
Wetted area = 2.95395 m.
Area projection in the x-plane = 0.900234 m, y-plane = 1.02121 m.
Max. coordinate in the x-direction = 1.01341 m, y-direction = 0.591606 m.
Min. coordinate in the x-direction = -0.00781428 m, y-direction = -0.296309 m.
Matching the periodic boundary points for marker pair 1.
 Matched 660 points with a max distance of: 1.12415e-13.
Computing wall distances.

-------------------- Solver Preprocessing ( Zone 0 ) --------------------
Viscous flow: Computing pressure using the ideal gas law
based on the free-stream temperature and a density computed
from the Reynolds number.
Force coefficients computed using free-stream values.

-- Models:
+------------------------------------------------------------------------------+
|          Viscosity Model|        Conductivity Model|              Fluid Model|
+------------------------------------------------------------------------------+
|               SUTHERLAND|          CONSTANT_PRANDTL|                IDEAL_GAS|
+------------------------------------------------------------------------------+
-- Fluid properties:
+------------------------------------------------------------------------------+
|                  Name|    Dim. value|    Ref. value|      Unit|Non-dim. value|
+------------------------------------------------------------------------------+
|        Ref. Viscosity|     1.716e-05|             1|   N.s/m^2|     1.716e-05|
|      Sutherland Temp.|        273.15|             1|         K|        273.15|
|     Sutherland Const.|         110.4|             1|         K|         110.4|
+------------------------------------------------------------------------------+
|        Prandtl (Lam.)|             -|             -|         -|          0.72|
|       Prandtl (Turb.)|             -|             -|         -|           0.9|
+------------------------------------------------------------------------------+
|          Gas Constant|       287.058|             1|  N.m/kg.K|       287.058|
|      Spec. Heat Ratio|             -|             -|         -|           1.4|
+------------------------------------------------------------------------------+
-- Initial and free-stream conditions:
+------------------------------------------------------------------------------+
|                  Name|    Dim. value|    Ref. value|      Unit|Non-dim. value|
+------------------------------------------------------------------------------+
|       Static Pressure|       4571.62|             1|        Pa|       4571.62|
|               Density|     0.0530859|             1|    kg/m^3|     0.0530859|
|           Temperature|           300|             1|         K|           300|
|          Total Energy|        236995|             1|   m^2/s^2|        236995|
|            Velocity-X|       159.593|             1|       m/s|       159.593|
|            Velocity-Y|      -133.915|             1|       m/s|      -133.915|
|    Velocity Magnitude|       208.334|             1|       m/s|       208.334|
+------------------------------------------------------------------------------+
|             Viscosity|   1.84592e-05|             1|   N.s/m^2|   1.84592e-05|
|          Conductivity|             -|             1|   W/m^2.K|             -|
|     Turb. Kin. Energy|       79.7533|             1|   m^2/s^2|       79.7533|
|     Spec. Dissipation|   2.29359e+06|             1|       1/s|   2.29359e+06|
+------------------------------------------------------------------------------+
|           Mach Number|             -|             -|         -|           0.6|
|       Reynolds Number|             -|             -|         -|        600000|
+------------------------------------------------------------------------------+
Initialize Jacobian structure (Navier-Stokes). MG level: 0.
Initialize Jacobian structure (SA model).

------------------- Numerics Preprocessing ( Zone 0 ) -------------------

----------------- Integration Preprocessing ( Zone 0 ) ------------------

------------------- Iteration Preprocessing ( Zone 0 ) ------------------
Euler/Navier-Stokes/RANS fluid iteration.

------------------------------ Begin Solver -----------------------------

Simulation Run using the Single-zone Driver
WARNING: SU2 was not compiled for an AVX-capable architecture. Performance could be better,
         see https://su2code.github.io/docs_v7/Build-SU2-Linux-MacOS/#compiler-optimizations
+--------------------------------------+
|  Inner_Iter|   Time(sec)|    rms[Rho]|
+--------------------------------------+
|           0|  7.6669e-02|   -2.470263|
|          10|  6.1269e-02|   -3.116933|
|          20|  6.5868e-02|   -2.927397|
|          30|  6.7386e-02|   -2.933273|
|          40|  6.4759e-02|   -2.878690|
|          50|  6.5620e-02|   -2.768656|
+-----------------------------------------------------------------------+
|        File Writing Summary       |              Filename             |
+-----------------------------------------------------------------------+
|SU2 binary restart                 |restart_flow_databladeVALIDATION_Blade_4.dat|
|                                   |                     (10938.3 MB/s)|
|Paraview                           |volume_flow_databladeVALIDATION_Blade_4.vtu|
|                                   |                     (926.992 MB/s)|
|Paraview surface                   |surface_flowdatabladeVALIDATION_Blade_4.vtu|
|                                   |                     (69.8941 MB/s)|
|SU2 ASCII restart                  |restart_flow_databladeVALIDATION_Blade_4.csv|
|                                   |                     (21.2575 MB/s)|
|CSV file                           |surface_flowdatabladeVALIDATION_Blade_4.csv|
|                                   |                     (20.4938 MB/s)|
+-----------------------------------------------------------------------+
+--------------------------------------+
|  Inner_Iter|   Time(sec)|    rms[Rho]|
+--------------------------------------+
|          60|  1.0306e-01|   -2.943516|
|          70|  9.7073e-02|   -3.042431|
|          80|  9.2215e-02|   -3.031546|
|          90|  8.9228e-02|   -2.938663|
|         100|  8.8385e-02|   -2.917398|
+-----------------------------------------------------------------------+
|        File Writing Summary       |              Filename             |
+-----------------------------------------------------------------------+
|SU2 binary restart                 |restart_flow_databladeVALIDATION_Blade_4.dat|
|                                   |                     (9924.52 MB/s)|
|Paraview                           |volume_flow_databladeVALIDATION_Blade_4.vtu|
|                                   |                     (901.575 MB/s)|
|Paraview surface                   |surface_flowdatabladeVALIDATION_Blade_4.vtu|
|                                   |                     (98.8017 MB/s)|
|SU2 ASCII restart                  |restart_flow_databladeVALIDATION_Blade_4.csv|
|                                   |                     (21.0142 MB/s)|
|CSV file                           |surface_flowdatabladeVALIDATION_Blade_4.csv|
|                                   |                      (20.206 MB/s)|
+-----------------------------------------------------------------------+
+--------------------------------------+
|  Inner_Iter|   Time(sec)|    rms[Rho]|
+--------------------------------------+
|         110|  1.0731e-01|   -2.995789|
|         120|  1.0433e-01|   -2.960520|
|         130|  1.0279e-01|   -2.900683|
|         140|  1.0115e-01|   -3.022673|
|         150|  9.9026e-02|   -3.125909|
+-----------------------------------------------------------------------+
|        File Writing Summary       |              Filename             |
+-----------------------------------------------------------------------+
|SU2 binary restart                 |restart_flow_databladeVALIDATION_Blade_4.dat|
|                                   |                     (10026.8 MB/s)|
|Paraview                           |volume_flow_databladeVALIDATION_Blade_4.vtu|
|                                   |                     (1062.93 MB/s)|
|Paraview surface                   |surface_flowdatabladeVALIDATION_Blade_4.vtu|
|                                   |                     (93.4478 MB/s)|
|SU2 ASCII restart                  |restart_flow_databladeVALIDATION_Blade_4.csv|
|                                   |                     (22.0826 MB/s)|
|CSV file                           |surface_flowdatabladeVALIDATION_Blade_4.csv|
|                                   |                     (21.7762 MB/s)|
+-----------------------------------------------------------------------+
+--------------------------------------+
|  Inner_Iter|   Time(sec)|    rms[Rho]|
+--------------------------------------+
|         160|  1.1018e-01|   -3.156808|
|         170|  1.0739e-01|   -3.144828|
|         180|  1.0486e-01|   -3.151976|
|         190|  1.0237e-01|   -3.206823|
|         200|  1.0056e-01|   -3.117368|
+-----------------------------------------------------------------------+
|        File Writing Summary       |              Filename             |
+-----------------------------------------------------------------------+
|SU2 binary restart                 |restart_flow_databladeVALIDATION_Blade_4.dat|
|                                   |                     (13425.4 MB/s)|
|Paraview                           |volume_flow_databladeVALIDATION_Blade_4.vtu|
|                                   |                     (1069.24 MB/s)|
|Paraview surface                   |surface_flowdatabladeVALIDATION_Blade_4.vtu|
|                                   |                     (98.5795 MB/s)|
|SU2 ASCII restart                  |restart_flow_databladeVALIDATION_Blade_4.csv|
|                                   |                     (22.6717 MB/s)|
|CSV file                           |surface_flowdatabladeVALIDATION_Blade_4.csv|
|                                   |                     (20.7944 MB/s)|
+-----------------------------------------------------------------------+
+--------------------------------------+
|  Inner_Iter|   Time(sec)|    rms[Rho]|
+--------------------------------------+
|         210|  1.0897e-01|   -3.158122|
|         220|  1.0644e-01|   -3.251202|
|         230|  1.0439e-01|   -3.254668|
|         240|  1.0287e-01|   -3.127165|
|         250|  1.0114e-01|   -3.296987|
+-----------------------------------------------------------------------+
|        File Writing Summary       |              Filename             |
+-----------------------------------------------------------------------+
|SU2 binary restart                 |restart_flow_databladeVALIDATION_Blade_4.dat|
|                                   |                     (6680.16 MB/s)|
|Paraview                           |volume_flow_databladeVALIDATION_Blade_4.vtu|
|                                   |                     (947.471 MB/s)|
|Paraview surface                   |surface_flowdatabladeVALIDATION_Blade_4.vtu|
|                                   |                     (103.733 MB/s)|
|SU2 ASCII restart                  |restart_flow_databladeVALIDATION_Blade_4.csv|
|                                   |                     (22.1013 MB/s)|
|CSV file                           |surface_flowdatabladeVALIDATION_Blade_4.csv|
|                                   |                     (20.5628 MB/s)|
+-----------------------------------------------------------------------+
+--------------------------------------+
|  Inner_Iter|   Time(sec)|    rms[Rho]|
+--------------------------------------+
|         260|  1.0804e-01|   -3.260523|
|         270|  1.0633e-01|   -3.251671|
|         280|  1.0468e-01|   -3.368485|
|         290|  1.0302e-01|   -3.422934|
|         300|  1.0161e-01|   -3.400932|
+-----------------------------------------------------------------------+
|        File Writing Summary       |              Filename             |
+-----------------------------------------------------------------------+
|SU2 binary restart                 |restart_flow_databladeVALIDATION_Blade_4.dat|
|                                   |                     (14317.4 MB/s)|
|Paraview                           |volume_flow_databladeVALIDATION_Blade_4.vtu|
|                                   |                     (1002.56 MB/s)|
|Paraview surface                   |surface_flowdatabladeVALIDATION_Blade_4.vtu|
|                                   |                     (105.865 MB/s)|
|SU2 ASCII restart                  |restart_flow_databladeVALIDATION_Blade_4.csv|
|                                   |                     (22.5139 MB/s)|
|CSV file                           |surface_flowdatabladeVALIDATION_Blade_4.csv|
|                                   |                       (22.45 MB/s)|
+-----------------------------------------------------------------------+
+--------------------------------------+
|  Inner_Iter|   Time(sec)|    rms[Rho]|
+--------------------------------------+
|         310|  1.0736e-01|   -3.256357|
|         320|  1.0577e-01|   -3.308345|
|         330|  1.0431e-01|   -3.341600|
|         340|  1.0312e-01|   -3.355785|
|         350|  1.0194e-01|   -3.432605|
+-----------------------------------------------------------------------+
|        File Writing Summary       |              Filename             |
+-----------------------------------------------------------------------+
|SU2 binary restart                 |restart_flow_databladeVALIDATION_Blade_4.dat|
|                                   |                     (12108.2 MB/s)|
|Paraview                           |volume_flow_databladeVALIDATION_Blade_4.vtu|
|                                   |                     (1121.04 MB/s)|
|Paraview surface                   |surface_flowdatabladeVALIDATION_Blade_4.vtu|
|                                   |                     (91.1479 MB/s)|
|SU2 ASCII restart                  |restart_flow_databladeVALIDATION_Blade_4.csv|
|                                   |                     (22.1943 MB/s)|
|CSV file                           |surface_flowdatabladeVALIDATION_Blade_4.csv|
|                                   |                     (21.3102 MB/s)|
+-----------------------------------------------------------------------+
+--------------------------------------+
|  Inner_Iter|   Time(sec)|    rms[Rho]|
+--------------------------------------+
|         360|  1.0671e-01|   -3.539864|
|         370|  1.0561e-01|   -3.393849|
|         380|  1.0453e-01|   -3.472089|
|         390|  1.0328e-01|   -3.555809|
|         400|  1.0218e-01|   -3.472130|
+-----------------------------------------------------------------------+
|        File Writing Summary       |              Filename             |
+-----------------------------------------------------------------------+
|SU2 binary restart                 |restart_flow_databladeVALIDATION_Blade_4.dat|
|                                   |                     (12175.2 MB/s)|
|Paraview                           |volume_flow_databladeVALIDATION_Blade_4.vtu|
|                                   |                     (1152.27 MB/s)|
|Paraview surface                   |surface_flowdatabladeVALIDATION_Blade_4.vtu|
|                                   |                     (100.365 MB/s)|
|SU2 ASCII restart                  |restart_flow_databladeVALIDATION_Blade_4.csv|
|                                   |                     (21.4758 MB/s)|
|CSV file                           |surface_flowdatabladeVALIDATION_Blade_4.csv|
|                                   |                     (20.8584 MB/s)|
+-----------------------------------------------------------------------+
+--------------------------------------+
|  Inner_Iter|   Time(sec)|    rms[Rho]|
+--------------------------------------+
|         410|  1.0667e-01|   -3.417759|
|         420|  1.0567e-01|   -3.501411|
|         430|  1.0450e-01|   -3.593791|
|         440|  1.0350e-01|   -3.474689|
|         450|  1.0276e-01|   -3.420430|
+-----------------------------------------------------------------------+
|        File Writing Summary       |              Filename             |
+-----------------------------------------------------------------------+
|SU2 binary restart                 |restart_flow_databladeVALIDATION_Blade_4.dat|
|                                   |                     (12109.2 MB/s)|
|Paraview                           |volume_flow_databladeVALIDATION_Blade_4.vtu|
|                                   |                     (1073.52 MB/s)|
|Paraview surface                   |surface_flowdatabladeVALIDATION_Blade_4.vtu|
|                                   |                      (102.25 MB/s)|
|SU2 ASCII restart                  |restart_flow_databladeVALIDATION_Blade_4.csv|
|                                   |                     (22.4934 MB/s)|
|CSV file                           |surface_flowdatabladeVALIDATION_Blade_4.csv|
|                                   |                     (21.6652 MB/s)|
+-----------------------------------------------------------------------+
+--------------------------------------+
|  Inner_Iter|   Time(sec)|    rms[Rho]|
+--------------------------------------+
|         460|  1.0643e-01|   -3.597498|
|         470|  1.0543e-01|   -3.533456|
|         480|  1.0468e-01|   -3.443735|
|         490|  1.0387e-01|   -3.587285|
|         500|  1.0298e-01|   -3.663182|
+-----------------------------------------------------------------------+
|        File Writing Summary       |              Filename             |
+-----------------------------------------------------------------------+
|SU2 binary restart                 |restart_flow_databladeVALIDATION_Blade_4.dat|
|                                   |                     (13309.3 MB/s)|
|Paraview                           |volume_flow_databladeVALIDATION_Blade_4.vtu|
|                                   |                     (1002.88 MB/s)|
|Paraview surface                   |surface_flowdatabladeVALIDATION_Blade_4.vtu|
|                                   |                     (96.7983 MB/s)|
|SU2 ASCII restart                  |restart_flow_databladeVALIDATION_Blade_4.csv|
|                                   |                     (21.5508 MB/s)|
|CSV file                           |surface_flowdatabladeVALIDATION_Blade_4.csv|
|                                   |                     (21.4169 MB/s)|
+-----------------------------------------------------------------------+
+--------------------------------------+
|  Inner_Iter|   Time(sec)|    rms[Rho]|
+--------------------------------------+
|         510|  1.0665e-01|   -3.507580|
|         520|  1.0590e-01|   -3.434763|
|         530|  1.0504e-01|   -3.598497|
|         540|  1.0414e-01|   -3.634613|
|         550|  1.0337e-01|   -3.463357|
+-----------------------------------------------------------------------+
|        File Writing Summary       |              Filename             |
+-----------------------------------------------------------------------+
|SU2 binary restart                 |restart_flow_databladeVALIDATION_Blade_4.dat|
|                                   |                     (12143.5 MB/s)|
|Paraview                           |volume_flow_databladeVALIDATION_Blade_4.vtu|
|                                   |                     (1032.09 MB/s)|
|Paraview surface                   |surface_flowdatabladeVALIDATION_Blade_4.vtu|
|                                   |                     (106.112 MB/s)|
|SU2 ASCII restart                  |restart_flow_databladeVALIDATION_Blade_4.csv|
|                                   |                     (22.2513 MB/s)|
|CSV file                           |surface_flowdatabladeVALIDATION_Blade_4.csv|
|                                   |                     (22.8135 MB/s)|
+-----------------------------------------------------------------------+
+--------------------------------------+
|  Inner_Iter|   Time(sec)|    rms[Rho]|
+--------------------------------------+
|         560|  1.0660e-01|   -3.443382|
|         570|  1.0578e-01|   -3.592943|
|         580|  1.0505e-01|   -3.499329|
|         590|  1.0438e-01|   -3.447768|
|         600|  1.0367e-01|   -3.594629|
+-----------------------------------------------------------------------+
|        File Writing Summary       |              Filename             |
+-----------------------------------------------------------------------+
|SU2 binary restart                 |restart_flow_databladeVALIDATION_Blade_4.dat|
|                                   |                     (10978.4 MB/s)|
|Paraview                           |volume_flow_databladeVALIDATION_Blade_4.vtu|
|                                   |                     (1071.57 MB/s)|
|Paraview surface                   |surface_flowdatabladeVALIDATION_Blade_4.vtu|
|                                   |                     (102.168 MB/s)|
|SU2 ASCII restart                  |restart_flow_databladeVALIDATION_Blade_4.csv|
|                                   |                     (21.4967 MB/s)|
|CSV file                           |surface_flowdatabladeVALIDATION_Blade_4.csv|
|                                   |                     (21.3442 MB/s)|
+-----------------------------------------------------------------------+
+--------------------------------------+
|  Inner_Iter|   Time(sec)|    rms[Rho]|
+--------------------------------------+
|         610|  1.0652e-01|   -3.670520|
|         620|  1.0578e-01|   -3.579821|
|         630|  1.0515e-01|   -3.530059|
|         640|  1.0441e-01|   -3.675041|
|         650|  1.0370e-01|   -3.658372|
+-----------------------------------------------------------------------+
|        File Writing Summary       |              Filename             |
+-----------------------------------------------------------------------+
|SU2 binary restart                 |restart_flow_databladeVALIDATION_Blade_4.dat|
|                                   |                     (13428.8 MB/s)|
|Paraview                           |volume_flow_databladeVALIDATION_Blade_4.vtu|
|                                   |                     (1052.54 MB/s)|
|Paraview surface                   |surface_flowdatabladeVALIDATION_Blade_4.vtu|
|                                   |                     (102.717 MB/s)|
|SU2 ASCII restart                  |restart_flow_databladeVALIDATION_Blade_4.csv|
|                                   |                     (22.3513 MB/s)|
|CSV file                           |surface_flowdatabladeVALIDATION_Blade_4.csv|
|                                   |                     (21.5181 MB/s)|
+-----------------------------------------------------------------------+
+--------------------------------------+
|  Inner_Iter|   Time(sec)|    rms[Rho]|
+--------------------------------------+
|         660|  1.0638e-01|   -3.514898|
|         670|  1.0576e-01|   -3.643093|
|         680|  1.0509e-01|   -3.749996|
|         690|  1.0445e-01|   -3.617515|
|         700|  1.0388e-01|   -3.666857|
+-----------------------------------------------------------------------+
|        File Writing Summary       |              Filename             |
+-----------------------------------------------------------------------+
|SU2 binary restart                 |restart_flow_databladeVALIDATION_Blade_4.dat|
|                                   |                     (12242.8 MB/s)|
|Paraview                           |volume_flow_databladeVALIDATION_Blade_4.vtu|
|                                   |                     (1025.62 MB/s)|
|Paraview surface                   |surface_flowdatabladeVALIDATION_Blade_4.vtu|
|                                   |                     (95.3663 MB/s)|
|SU2 ASCII restart                  |restart_flow_databladeVALIDATION_Blade_4.csv|
|                                   |                     (21.8276 MB/s)|
|CSV file                           |surface_flowdatabladeVALIDATION_Blade_4.csv|
|                                   |                     (20.9372 MB/s)|
+-----------------------------------------------------------------------+
+--------------------------------------+
|  Inner_Iter|   Time(sec)|    rms[Rho]|
+--------------------------------------+
|         710|  1.0637e-01|   -3.821143|
|         720|  1.0571e-01|   -3.780137|
|         730|  1.0516e-01|   -3.660073|
|         740|  1.0463e-01|   -3.732857|
|         750|  1.0424e-01|   -3.702973|
+-----------------------------------------------------------------------+
|        File Writing Summary       |              Filename             |
+-----------------------------------------------------------------------+
|SU2 binary restart                 |restart_flow_databladeVALIDATION_Blade_4.dat|
|                                   |                     (12214.6 MB/s)|
|Paraview                           |volume_flow_databladeVALIDATION_Blade_4.vtu|
|                                   |                     (1067.24 MB/s)|
|Paraview surface                   |surface_flowdatabladeVALIDATION_Blade_4.vtu|
|                                   |                     (104.024 MB/s)|
|SU2 ASCII restart                  |restart_flow_databladeVALIDATION_Blade_4.csv|
|                                   |                     (22.9547 MB/s)|
|CSV file                           |surface_flowdatabladeVALIDATION_Blade_4.csv|
|                                   |                     (19.5155 MB/s)|
+-----------------------------------------------------------------------+
+--------------------------------------+
|  Inner_Iter|   Time(sec)|    rms[Rho]|
+--------------------------------------+
|         760|  1.0644e-01|   -3.858801|
|         770|  1.0593e-01|   -3.762980|
|         780|  1.0537e-01|   -3.830809|
|         790|  1.0481e-01|   -3.908109|
|         800|  1.0430e-01|   -3.858728|
+-----------------------------------------------------------------------+
|        File Writing Summary       |              Filename             |
+-----------------------------------------------------------------------+
|SU2 binary restart                 |restart_flow_databladeVALIDATION_Blade_4.dat|
|                                   |                     (12335.2 MB/s)|
|Paraview                           |volume_flow_databladeVALIDATION_Blade_4.vtu|
|                                   |                     (1108.47 MB/s)|
|Paraview surface                   |surface_flowdatabladeVALIDATION_Blade_4.vtu|
|                                   |                     (104.348 MB/s)|
|SU2 ASCII restart                  |restart_flow_databladeVALIDATION_Blade_4.csv|
|                                   |                     (22.5506 MB/s)|
|CSV file                           |surface_flowdatabladeVALIDATION_Blade_4.csv|
|                                   |                     (21.5142 MB/s)|
+-----------------------------------------------------------------------+
+--------------------------------------+
|  Inner_Iter|   Time(sec)|    rms[Rho]|
+--------------------------------------+
|         810|  1.0647e-01|   -3.869256|
|         820|  1.0587e-01|   -3.963071|
|         830|  1.0533e-01|   -3.893506|
|         840|  1.0482e-01|   -3.857855|
|         850|  1.0436e-01|   -3.971379|
+-----------------------------------------------------------------------+
|        File Writing Summary       |              Filename             |
+-----------------------------------------------------------------------+
|SU2 binary restart                 |restart_flow_databladeVALIDATION_Blade_4.dat|
|                                   |                     (12436.8 MB/s)|
|Paraview                           |volume_flow_databladeVALIDATION_Blade_4.vtu|
|                                   |                     (1158.11 MB/s)|
|Paraview surface                   |surface_flowdatabladeVALIDATION_Blade_4.vtu|
|                                   |                     (97.3652 MB/s)|
|SU2 ASCII restart                  |restart_flow_databladeVALIDATION_Blade_4.csv|
|                                   |                     (21.8175 MB/s)|
|CSV file                           |surface_flowdatabladeVALIDATION_Blade_4.csv|
|                                   |                     (20.7836 MB/s)|
+-----------------------------------------------------------------------+
+--------------------------------------+
|  Inner_Iter|   Time(sec)|    rms[Rho]|
+--------------------------------------+
|         860|  1.0640e-01|   -4.031671|
|         870|  1.0588e-01|   -3.915598|
|         880|  1.0545e-01|   -3.957926|
|         890|  1.0488e-01|   -4.090447|
|         900|  1.0444e-01|   -3.918235|
+-----------------------------------------------------------------------+
|        File Writing Summary       |              Filename             |
+-----------------------------------------------------------------------+
|SU2 binary restart                 |restart_flow_databladeVALIDATION_Blade_4.dat|
|                                   |                     (12009.2 MB/s)|
|Paraview                           |volume_flow_databladeVALIDATION_Blade_4.vtu|
|                                   |                     (1032.09 MB/s)|
|Paraview surface                   |surface_flowdatabladeVALIDATION_Blade_4.vtu|
|                                   |                     (106.473 MB/s)|
|SU2 ASCII restart                  |restart_flow_databladeVALIDATION_Blade_4.csv|
|                                   |                     (21.6861 MB/s)|
|CSV file                           |surface_flowdatabladeVALIDATION_Blade_4.csv|
|                                   |                     (21.0748 MB/s)|
+-----------------------------------------------------------------------+
+--------------------------------------+
|  Inner_Iter|   Time(sec)|    rms[Rho]|
+--------------------------------------+
|         910|  1.0646e-01|   -3.945781|
|         920|  1.0596e-01|   -4.104594|
|         930|  1.0546e-01|   -4.086860|
|         940|  1.0506e-01|   -3.956714|
|         950|  1.0461e-01|   -4.129054|
+-----------------------------------------------------------------------+
|        File Writing Summary       |              Filename             |
+-----------------------------------------------------------------------+
|SU2 binary restart                 |restart_flow_databladeVALIDATION_Blade_4.dat|
|                                   |                     (12692.6 MB/s)|
|Paraview                           |volume_flow_databladeVALIDATION_Blade_4.vtu|
|                                   |                     (1048.84 MB/s)|
|Paraview surface                   |surface_flowdatabladeVALIDATION_Blade_4.vtu|
|                                   |                     (97.1651 MB/s)|
|SU2 ASCII restart                  |restart_flow_databladeVALIDATION_Blade_4.csv|
|                                   |                      (21.966 MB/s)|
|CSV file                           |surface_flowdatabladeVALIDATION_Blade_4.csv|
|                                   |                     (22.1261 MB/s)|
+-----------------------------------------------------------------------+
+--------------------------------------+
|  Inner_Iter|   Time(sec)|    rms[Rho]|
+--------------------------------------+
|         960|  1.0639e-01|   -4.188226|
|         970|  1.0594e-01|   -4.089134|
|         980|  1.0551e-01|   -4.119391|
|         990|  1.0506e-01|   -4.209780|
|        1000|  1.0458e-01|   -4.272234|
+-----------------------------------------------------------------------+
|        File Writing Summary       |              Filename             |
+-----------------------------------------------------------------------+
|SU2 binary restart                 |restart_flow_databladeVALIDATION_Blade_4.dat|
|                                   |                     (12756.9 MB/s)|
|Paraview                           |volume_flow_databladeVALIDATION_Blade_4.vtu|
|                                   |                     (1051.15 MB/s)|
|Paraview surface                   |surface_flowdatabladeVALIDATION_Blade_4.vtu|
|                                   |                      (103.51 MB/s)|
|SU2 ASCII restart                  |restart_flow_databladeVALIDATION_Blade_4.csv|
|                                   |                     (21.9492 MB/s)|
|CSV file                           |surface_flowdatabladeVALIDATION_Blade_4.csv|
|                                   |                     (21.3181 MB/s)|
+-----------------------------------------------------------------------+
+--------------------------------------+
|  Inner_Iter|   Time(sec)|    rms[Rho]|
+--------------------------------------+
|        1010|  1.0635e-01|   -4.141584|
|        1020|  1.0598e-01|   -4.200338|
|        1030|  1.0564e-01|   -4.222105|
|        1040|  1.0522e-01|   -4.344741|
|        1050|  1.0476e-01|   -4.396734|
+-----------------------------------------------------------------------+
|        File Writing Summary       |              Filename             |
+-----------------------------------------------------------------------+
|SU2 binary restart                 |restart_flow_databladeVALIDATION_Blade_4.dat|
|                                   |                     (13787.2 MB/s)|
|Paraview                           |volume_flow_databladeVALIDATION_Blade_4.vtu|
|                                   |                     (1059.75 MB/s)|
|Paraview surface                   |surface_flowdatabladeVALIDATION_Blade_4.vtu|
|                                   |                     (105.721 MB/s)|
|SU2 ASCII restart                  |restart_flow_databladeVALIDATION_Blade_4.csv|
|                                   |                     (21.3357 MB/s)|
|CSV file                           |surface_flowdatabladeVALIDATION_Blade_4.csv|
|                                   |                     (21.1586 MB/s)|
+-----------------------------------------------------------------------+
+--------------------------------------+
|  Inner_Iter|   Time(sec)|    rms[Rho]|
+--------------------------------------+
|        1060|  1.0648e-01|   -4.373665|
|        1070|  1.0613e-01|   -4.361617|
|        1080|  1.0572e-01|   -4.421342|
|        1090|  1.0528e-01|   -4.431851|
|        1100|  1.0502e-01|   -4.363857|
+-----------------------------------------------------------------------+
|        File Writing Summary       |              Filename             |
+-----------------------------------------------------------------------+
|SU2 binary restart                 |restart_flow_databladeVALIDATION_Blade_4.dat|
|                                   |                       (12241 MB/s)|
|Paraview                           |volume_flow_databladeVALIDATION_Blade_4.vtu|
|                                   |                     (903.345 MB/s)|
|Paraview surface                   |surface_flowdatabladeVALIDATION_Blade_4.vtu|
|                                   |                     (97.9547 MB/s)|
|SU2 ASCII restart                  |restart_flow_databladeVALIDATION_Blade_4.csv|
|                                   |                     (21.8374 MB/s)|
|CSV file                           |surface_flowdatabladeVALIDATION_Blade_4.csv|
|                                   |                     (21.6595 MB/s)|
+-----------------------------------------------------------------------+
+--------------------------------------+
|  Inner_Iter|   Time(sec)|    rms[Rho]|
+--------------------------------------+
|        1110|  1.0674e-01|   -4.475353|
|        1120|  1.0643e-01|   -4.422023|
|        1130|  1.0603e-01|   -4.506912|
|        1140|  1.0560e-01|   -4.537505|
|        1150|  1.0528e-01|   -4.499708|
+-----------------------------------------------------------------------+
|        File Writing Summary       |              Filename             |
+-----------------------------------------------------------------------+
|SU2 binary restart                 |restart_flow_databladeVALIDATION_Blade_4.dat|
|                                   |                      (3717.1 MB/s)|
|Paraview                           |volume_flow_databladeVALIDATION_Blade_4.vtu|
|                                   |                     (899.593 MB/s)|
|Paraview surface                   |surface_flowdatabladeVALIDATION_Blade_4.vtu|
|                                   |                     (94.7069 MB/s)|
|SU2 ASCII restart                  |restart_flow_databladeVALIDATION_Blade_4.csv|
|                                   |                     (20.6447 MB/s)|
|CSV file                           |surface_flowdatabladeVALIDATION_Blade_4.csv|
|                                   |                     (19.0694 MB/s)|
+-----------------------------------------------------------------------+
+--------------------------------------+
|  Inner_Iter|   Time(sec)|    rms[Rho]|
+--------------------------------------+
|        1160|  1.0774e-01|   -4.523398|
|        1170|  1.0774e-01|   -4.641037|
|        1180|  1.0758e-01|   -4.612585|
|        1190|  1.0760e-01|   -4.479544|
|        1200|  1.0743e-01|   -4.491570|
+-----------------------------------------------------------------------+
|        File Writing Summary       |              Filename             |
+-----------------------------------------------------------------------+
|SU2 binary restart                 |restart_flow_databladeVALIDATION_Blade_4.dat|
|                                   |                     (10905.9 MB/s)|
|Paraview                           |volume_flow_databladeVALIDATION_Blade_4.vtu|
|                                   |                     (893.111 MB/s)|
|Paraview surface                   |surface_flowdatabladeVALIDATION_Blade_4.vtu|
|                                   |                     (83.2508 MB/s)|
|SU2 ASCII restart                  |restart_flow_databladeVALIDATION_Blade_4.csv|
|                                   |                     (18.9494 MB/s)|
|CSV file                           |surface_flowdatabladeVALIDATION_Blade_4.csv|
|                                   |                     (19.3418 MB/s)|
+-----------------------------------------------------------------------+
+--------------------------------------+
|  Inner_Iter|   Time(sec)|    rms[Rho]|
+--------------------------------------+
|        1210|  1.0927e-01|   -4.615567|
|        1220|  1.0906e-01|   -4.616069|
|        1230|  1.0934e-01|   -4.604444|
|        1240|  1.0933e-01|   -4.636690|
|        1250|  1.0911e-01|   -4.665328|
+-----------------------------------------------------------------------+
|        File Writing Summary       |              Filename             |
+-----------------------------------------------------------------------+
|SU2 binary restart                 |restart_flow_databladeVALIDATION_Blade_4.dat|
|                                   |                       (10580 MB/s)|
|Paraview                           |volume_flow_databladeVALIDATION_Blade_4.vtu|
|                                   |                     (991.695 MB/s)|
|Paraview surface                   |surface_flowdatabladeVALIDATION_Blade_4.vtu|
|                                   |                     (81.6632 MB/s)|
|SU2 ASCII restart                  |restart_flow_databladeVALIDATION_Blade_4.csv|
|                                   |                     (18.4905 MB/s)|
|CSV file                           |surface_flowdatabladeVALIDATION_Blade_4.csv|
|                                   |                     (20.1315 MB/s)|
+-----------------------------------------------------------------------+
+--------------------------------------+
|  Inner_Iter|   Time(sec)|    rms[Rho]|
+--------------------------------------+
|        1260|  1.1116e-01|   -4.588990|
|        1270|  1.1184e-01|   -4.532947|
|        1280|  1.1170e-01|   -4.674563|
|        1290|  1.1242e-01|   -4.673465|
|        1300|  1.1258e-01|   -4.604530|
+-----------------------------------------------------------------------+
|        File Writing Summary       |              Filename             |
+-----------------------------------------------------------------------+
|SU2 binary restart                 |restart_flow_databladeVALIDATION_Blade_4.dat|
|                                   |                     (9793.97 MB/s)|
|Paraview                           |volume_flow_databladeVALIDATION_Blade_4.vtu|
|                                   |                     (476.263 MB/s)|
|Paraview surface                   |surface_flowdatabladeVALIDATION_Blade_4.vtu|
|                                   |                      (15.762 MB/s)|
|SU2 ASCII restart                  |restart_flow_databladeVALIDATION_Blade_4.csv|
|                                   |                     (19.0213 MB/s)|
|CSV file                           |surface_flowdatabladeVALIDATION_Blade_4.csv|
|                                   |                     (16.9039 MB/s)|
+-----------------------------------------------------------------------+
+--------------------------------------+
|  Inner_Iter|   Time(sec)|    rms[Rho]|
+--------------------------------------+
|        1310|  1.1512e-01|   -4.636850|
|        1320|  1.1560e-01|   -4.707342|
|        1330|  1.1617e-01|   -4.660223|
|        1340|  1.1650e-01|   -4.645619|
|        1350|  1.1662e-01|   -4.744236|
+-----------------------------------------------------------------------+
|        File Writing Summary       |              Filename             |
+-----------------------------------------------------------------------+
|SU2 binary restart                 |restart_flow_databladeVALIDATION_Blade_4.dat|
|                                   |                     (7143.54 MB/s)|
|Paraview                           |volume_flow_databladeVALIDATION_Blade_4.vtu|
|                                   |                     (655.693 MB/s)|
|Paraview surface                   |surface_flowdatabladeVALIDATION_Blade_4.vtu|
|                                   |                     (60.2926 MB/s)|
|SU2 ASCII restart                  |restart_flow_databladeVALIDATION_Blade_4.csv|
|                                   |                     (19.8919 MB/s)|
|CSV file                           |surface_flowdatabladeVALIDATION_Blade_4.csv|
|                                   |                     (10.1457 MB/s)|
+-----------------------------------------------------------------------+
+--------------------------------------+
|  Inner_Iter|   Time(sec)|    rms[Rho]|
+--------------------------------------+
|        1360|  1.1836e-01|   -4.738927|
|        1370|  1.1812e-01|   -4.713296|
|        1380|  1.1788e-01|   -4.774888|
|        1390|  1.1789e-01|   -4.806194|
|        1400|  1.1772e-01|   -4.732727|
+-----------------------------------------------------------------------+
|        File Writing Summary       |              Filename             |
+-----------------------------------------------------------------------+
|SU2 binary restart                 |restart_flow_databladeVALIDATION_Blade_4.dat|
|                                   |                     (11019.6 MB/s)|
|Paraview                           |volume_flow_databladeVALIDATION_Blade_4.vtu|
|                                   |                     (871.914 MB/s)|
|Paraview surface                   |surface_flowdatabladeVALIDATION_Blade_4.vtu|
|                                   |                     (76.5571 MB/s)|
|SU2 ASCII restart                  |restart_flow_databladeVALIDATION_Blade_4.csv|
|                                   |                     (19.6633 MB/s)|
|CSV file                           |surface_flowdatabladeVALIDATION_Blade_4.csv|
|                                   |                     (18.7861 MB/s)|
+-----------------------------------------------------------------------+
+--------------------------------------+
|  Inner_Iter|   Time(sec)|    rms[Rho]|
+--------------------------------------+
|        1410|  1.1929e-01|   -4.640775|
|        1420|  1.1899e-01|   -4.772635|
|        1430|  1.1928e-01|   -4.802256|
|        1440|  1.1923e-01|   -4.791691|
|        1450|  1.1921e-01|   -4.836563|
+-----------------------------------------------------------------------+
|        File Writing Summary       |              Filename             |
+-----------------------------------------------------------------------+
|SU2 binary restart                 |restart_flow_databladeVALIDATION_Blade_4.dat|
|                                   |                     (4044.63 MB/s)|
|Paraview                           |volume_flow_databladeVALIDATION_Blade_4.vtu|
|                                   |                     (444.294 MB/s)|
|Paraview surface                   |surface_flowdatabladeVALIDATION_Blade_4.vtu|
|                                   |                     (6.30231 MB/s)|
|SU2 ASCII restart                  |restart_flow_databladeVALIDATION_Blade_4.csv|
|                                   |                     (19.1379 MB/s)|
|CSV file                           |surface_flowdatabladeVALIDATION_Blade_4.csv|
|                                   |                     (19.8647 MB/s)|
+-----------------------------------------------------------------------+
+--------------------------------------+
|  Inner_Iter|   Time(sec)|    rms[Rho]|
+--------------------------------------+
|        1460|  1.2094e-01|   -4.848820|
|        1470|  1.2093e-01|   -4.722937|
|        1480|  1.2082e-01|   -4.815378|
|        1490|  1.2074e-01|   -4.888390|
|        1500|  1.2099e-01|   -4.901868|
+-----------------------------------------------------------------------+
|        File Writing Summary       |              Filename             |
+-----------------------------------------------------------------------+
|SU2 binary restart                 |restart_flow_databladeVALIDATION_Blade_4.dat|
|                                   |                     (2915.06 MB/s)|
|Paraview                           |volume_flow_databladeVALIDATION_Blade_4.vtu|
|                                   |                     (38.5367 MB/s)|
|Paraview surface                   |surface_flowdatabladeVALIDATION_Blade_4.vtu|
|                                   |                     (21.4027 MB/s)|
|SU2 ASCII restart                  |restart_flow_databladeVALIDATION_Blade_4.csv|
|                                   |                     (16.8216 MB/s)|
|CSV file                           |surface_flowdatabladeVALIDATION_Blade_4.csv|
|                                   |                     (17.2694 MB/s)|
+-----------------------------------------------------------------------+
+--------------------------------------+
|  Inner_Iter|   Time(sec)|    rms[Rho]|
+--------------------------------------+
|        1510|  1.2328e-01|   -4.835392|
|        1520|  1.2354e-01|   -4.869420|
|        1530|  1.2345e-01|   -4.891218|
|        1540|  1.2409e-01|   -4.793372|
|        1550|  1.2418e-01|   -4.842298|
+-----------------------------------------------------------------------+
|        File Writing Summary       |              Filename             |
+-----------------------------------------------------------------------+
|SU2 binary restart                 |restart_flow_databladeVALIDATION_Blade_4.dat|
|                                   |                     (3121.37 MB/s)|
|Paraview                           |volume_flow_databladeVALIDATION_Blade_4.vtu|
|                                   |                     (24.0967 MB/s)|
|Paraview surface                   |surface_flowdatabladeVALIDATION_Blade_4.vtu|
|                                   |                     (6.93874 MB/s)|
|SU2 ASCII restart                  |restart_flow_databladeVALIDATION_Blade_4.csv|
|                                   |                     (20.4252 MB/s)|
|CSV file                           |surface_flowdatabladeVALIDATION_Blade_4.csv|
|                                   |                     (18.1102 MB/s)|
+-----------------------------------------------------------------------+
+--------------------------------------+
|  Inner_Iter|   Time(sec)|    rms[Rho]|
+--------------------------------------+
|        1560|  1.2573e-01|   -4.954634|
|        1570|  1.2551e-01|   -4.883643|
|        1580|  1.2516e-01|   -4.954775|
|        1590|  1.2482e-01|   -4.882473|
|        1600|  1.2461e-01|   -4.868749|
+-----------------------------------------------------------------------+
|        File Writing Summary       |              Filename             |
+-----------------------------------------------------------------------+
|SU2 binary restart                 |restart_flow_databladeVALIDATION_Blade_4.dat|
|                                   |                     (10460.6 MB/s)|
|Paraview                           |volume_flow_databladeVALIDATION_Blade_4.vtu|
|                                   |                     (887.166 MB/s)|
|Paraview surface                   |surface_flowdatabladeVALIDATION_Blade_4.vtu|
|                                   |                     (98.5432 MB/s)|
|SU2 ASCII restart                  |restart_flow_databladeVALIDATION_Blade_4.csv|
|                                   |                     (20.2127 MB/s)|
|CSV file                           |surface_flowdatabladeVALIDATION_Blade_4.csv|
|                                   |                     (18.1432 MB/s)|
+-----------------------------------------------------------------------+
+--------------------------------------+
|  Inner_Iter|   Time(sec)|    rms[Rho]|
+--------------------------------------+
|        1610|  1.2577e-01|   -4.987637|
|        1620|  1.2549e-01|   -4.975050|
|        1630|  1.2523e-01|   -4.956265|
|        1640|  1.2493e-01|   -4.984053|
|        1650|  1.2460e-01|   -5.000661|
+-----------------------------------------------------------------------+
|        File Writing Summary       |              Filename             |
+-----------------------------------------------------------------------+
|SU2 binary restart                 |restart_flow_databladeVALIDATION_Blade_4.dat|
|                                   |                     (11200.9 MB/s)|
|Paraview                           |volume_flow_databladeVALIDATION_Blade_4.vtu|
|                                   |                      (967.27 MB/s)|
|Paraview surface                   |surface_flowdatabladeVALIDATION_Blade_4.vtu|
|                                   |                     (104.258 MB/s)|
|SU2 ASCII restart                  |restart_flow_databladeVALIDATION_Blade_4.csv|
|                                   |                     (20.3218 MB/s)|
|CSV file                           |surface_flowdatabladeVALIDATION_Blade_4.csv|
|                                   |                     (17.5541 MB/s)|
+-----------------------------------------------------------------------+
+--------------------------------------+
|  Inner_Iter|   Time(sec)|    rms[Rho]|
+--------------------------------------+
|        1660|  1.2580e-01|   -4.849786|
|        1670|  1.2555e-01|   -4.938957|
|        1680|  1.2528e-01|   -5.034588|
|        1690|  1.2506e-01|   -5.027178|
|        1700|  1.2486e-01|   -4.999990|
+-----------------------------------------------------------------------+
|        File Writing Summary       |              Filename             |
+-----------------------------------------------------------------------+
|SU2 binary restart                 |restart_flow_databladeVALIDATION_Blade_4.dat|
|                                   |                       (11058 MB/s)|
|Paraview                           |volume_flow_databladeVALIDATION_Blade_4.vtu|
|                                   |                     (931.193 MB/s)|
|Paraview surface                   |surface_flowdatabladeVALIDATION_Blade_4.vtu|
|                                   |                     (104.213 MB/s)|
|SU2 ASCII restart                  |restart_flow_databladeVALIDATION_Blade_4.csv|
|                                   |                      (21.004 MB/s)|
|CSV file                           |surface_flowdatabladeVALIDATION_Blade_4.csv|
|                                   |                     (19.9576 MB/s)|
+-----------------------------------------------------------------------+
+--------------------------------------+
|  Inner_Iter|   Time(sec)|    rms[Rho]|
+--------------------------------------+
|        1710|  1.2592e-01|   -5.036005|
|        1720|  1.2559e-01|   -5.059162|
|        1730|  1.2530e-01|   -4.961291|
|        1740|  1.2504e-01|   -4.946260|
|        1750|  1.2474e-01|   -5.107609|
+-----------------------------------------------------------------------+
|        File Writing Summary       |              Filename             |
+-----------------------------------------------------------------------+
|SU2 binary restart                 |restart_flow_databladeVALIDATION_Blade_4.dat|
|                                   |                     (11598.2 MB/s)|
|Paraview                           |volume_flow_databladeVALIDATION_Blade_4.vtu|
|                                   |                     (970.649 MB/s)|
|Paraview surface                   |surface_flowdatabladeVALIDATION_Blade_4.vtu|
|                                   |                     (94.2589 MB/s)|
|SU2 ASCII restart                  |restart_flow_databladeVALIDATION_Blade_4.csv|
|                                   |                     (21.2813 MB/s)|
|CSV file                           |surface_flowdatabladeVALIDATION_Blade_4.csv|
|                                   |                     (20.0153 MB/s)|
+-----------------------------------------------------------------------+
+--------------------------------------+
|  Inner_Iter|   Time(sec)|    rms[Rho]|
+--------------------------------------+
|        1760|  1.2573e-01|   -5.115016|
|        1770|  1.2544e-01|   -5.087337|
|        1780|  1.2519e-01|   -5.047399|
|        1790|  1.2488e-01|   -5.109957|
|        1800|  1.2459e-01|   -5.073835|
+-----------------------------------------------------------------------+
|        File Writing Summary       |              Filename             |
+-----------------------------------------------------------------------+
|SU2 binary restart                 |restart_flow_databladeVALIDATION_Blade_4.dat|
|                                   |                     (12092.6 MB/s)|
|Paraview                           |volume_flow_databladeVALIDATION_Blade_4.vtu|
|                                   |                     (927.867 MB/s)|
|Paraview surface                   |surface_flowdatabladeVALIDATION_Blade_4.vtu|
|                                   |                      (90.743 MB/s)|
|SU2 ASCII restart                  |restart_flow_databladeVALIDATION_Blade_4.csv|
|                                   |                     (20.9016 MB/s)|
|CSV file                           |surface_flowdatabladeVALIDATION_Blade_4.csv|
|                                   |                     (21.5489 MB/s)|
+-----------------------------------------------------------------------+
+--------------------------------------+
|  Inner_Iter|   Time(sec)|    rms[Rho]|
+--------------------------------------+
|        1810|  1.2559e-01|   -5.026737|
|        1820|  1.2533e-01|   -5.100320|
|        1830|  1.2502e-01|   -5.173522|
|        1840|  1.2474e-01|   -5.178470|
|        1850|  1.2449e-01|   -5.142348|
+-----------------------------------------------------------------------+
|        File Writing Summary       |              Filename             |
+-----------------------------------------------------------------------+
|SU2 binary restart                 |restart_flow_databladeVALIDATION_Blade_4.dat|
|                                   |                     (10398.9 MB/s)|
|Paraview                           |volume_flow_databladeVALIDATION_Blade_4.vtu|
|                                   |                     (957.086 MB/s)|
|Paraview surface                   |surface_flowdatabladeVALIDATION_Blade_4.vtu|
|                                   |                      (79.632 MB/s)|
|SU2 ASCII restart                  |restart_flow_databladeVALIDATION_Blade_4.csv|
|                                   |                     (21.3909 MB/s)|
|CSV file                           |surface_flowdatabladeVALIDATION_Blade_4.csv|
|                                   |                     (19.8952 MB/s)|
+-----------------------------------------------------------------------+
+--------------------------------------+
|  Inner_Iter|   Time(sec)|    rms[Rho]|
+--------------------------------------+
|        1860|  1.2543e-01|   -5.189819|
|        1870|  1.2514e-01|   -5.184269|
|        1880|  1.2492e-01|   -5.139400|
|        1890|  1.2468e-01|   -5.190484|
|        1900|  1.2438e-01|   -5.235585|
+-----------------------------------------------------------------------+
|        File Writing Summary       |              Filename             |
+-----------------------------------------------------------------------+
|SU2 binary restart                 |restart_flow_databladeVALIDATION_Blade_4.dat|
|                                   |                     (10873.8 MB/s)|
|Paraview                           |volume_flow_databladeVALIDATION_Blade_4.vtu|
|                                   |                     (980.672 MB/s)|
|Paraview surface                   |surface_flowdatabladeVALIDATION_Blade_4.vtu|
|                                   |                     (94.5435 MB/s)|
|SU2 ASCII restart                  |restart_flow_databladeVALIDATION_Blade_4.csv|
|                                   |                     (21.0307 MB/s)|
|CSV file                           |surface_flowdatabladeVALIDATION_Blade_4.csv|
|                                   |                      (20.316 MB/s)|
+-----------------------------------------------------------------------+
+--------------------------------------+
|  Inner_Iter|   Time(sec)|    rms[Rho]|
+--------------------------------------+
|        1910|  1.2528e-01|   -5.234514|
|        1920|  1.2502e-01|   -5.203469|
|        1930|  1.2478e-01|   -5.234726|
|        1940|  1.2451e-01|   -5.242048|
|        1950|  1.2426e-01|   -5.214356|
+-----------------------------------------------------------------------+
|        File Writing Summary       |              Filename             |
+-----------------------------------------------------------------------+
|SU2 binary restart                 |restart_flow_databladeVALIDATION_Blade_4.dat|
|                                   |                     (12500.5 MB/s)|
|Paraview                           |volume_flow_databladeVALIDATION_Blade_4.vtu|
|                                   |                     (911.305 MB/s)|
|Paraview surface                   |surface_flowdatabladeVALIDATION_Blade_4.vtu|
|                                   |                     (82.9386 MB/s)|
|SU2 ASCII restart                  |restart_flow_databladeVALIDATION_Blade_4.csv|
|                                   |                      (20.753 MB/s)|
|CSV file                           |surface_flowdatabladeVALIDATION_Blade_4.csv|
|                                   |                     (20.8447 MB/s)|
+-----------------------------------------------------------------------+
+--------------------------------------+
|  Inner_Iter|   Time(sec)|    rms[Rho]|
+--------------------------------------+
|        1960|  1.2523e-01|   -5.230503|
|        1970|  1.2493e-01|   -5.292047|
|        1980|  1.2475e-01|   -5.258112|
|        1990|  1.2460e-01|   -5.249997|
|        2000|  1.2442e-01|   -5.274784|
+-----------------------------------------------------------------------+
|        File Writing Summary       |              Filename             |
+-----------------------------------------------------------------------+
|SU2 binary restart                 |restart_flow_databladeVALIDATION_Blade_4.dat|
|                                   |                     (11265.4 MB/s)|
|Paraview                           |volume_flow_databladeVALIDATION_Blade_4.vtu|
|                                   |                     (949.894 MB/s)|
|Paraview surface                   |surface_flowdatabladeVALIDATION_Blade_4.vtu|
|                                   |                     (96.0578 MB/s)|
|SU2 ASCII restart                  |restart_flow_databladeVALIDATION_Blade_4.csv|
|                                   |                     (20.5117 MB/s)|
|CSV file                           |surface_flowdatabladeVALIDATION_Blade_4.csv|
|                                   |                     (18.7338 MB/s)|
+-----------------------------------------------------------------------+
+--------------------------------------+
|  Inner_Iter|   Time(sec)|    rms[Rho]|
+--------------------------------------+
|        2010|  1.2537e-01|   -5.288885|
|        2020|  1.2505e-01|   -5.347422|
|        2030|  1.2479e-01|   -5.336206|
|        2040|  1.2458e-01|   -5.305876|
|        2050|  1.2432e-01|   -5.380655|
+-----------------------------------------------------------------------+
|        File Writing Summary       |              Filename             |
+-----------------------------------------------------------------------+
|SU2 binary restart                 |restart_flow_databladeVALIDATION_Blade_4.dat|
|                                   |                     (8624.85 MB/s)|
|Paraview                           |volume_flow_databladeVALIDATION_Blade_4.vtu|
|                                   |                     (857.988 MB/s)|
|Paraview surface                   |surface_flowdatabladeVALIDATION_Blade_4.vtu|
|                                   |                     (96.7013 MB/s)|
|SU2 ASCII restart                  |restart_flow_databladeVALIDATION_Blade_4.csv|
|                                   |                     (20.9834 MB/s)|
|CSV file                           |surface_flowdatabladeVALIDATION_Blade_4.csv|
|                                   |                     (20.0516 MB/s)|
+-----------------------------------------------------------------------+
+--------------------------------------+
|  Inner_Iter|   Time(sec)|    rms[Rho]|
+--------------------------------------+
|        2060|  1.2517e-01|   -5.392905|
|        2070|  1.2494e-01|   -5.380173|
|        2080|  1.2475e-01|   -5.368474|
|        2090|  1.2449e-01|   -5.415861|
|        2100|  1.2434e-01|   -5.408051|
+-----------------------------------------------------------------------+
|        File Writing Summary       |              Filename             |
+-----------------------------------------------------------------------+
|SU2 binary restart                 |restart_flow_databladeVALIDATION_Blade_4.dat|
|                                   |                     (9649.17 MB/s)|
|Paraview                           |volume_flow_databladeVALIDATION_Blade_4.vtu|
|                                   |                     (798.527 MB/s)|
|Paraview surface                   |surface_flowdatabladeVALIDATION_Blade_4.vtu|
|                                   |                     (89.7031 MB/s)|
|SU2 ASCII restart                  |restart_flow_databladeVALIDATION_Blade_4.csv|
|                                   |                     (20.3059 MB/s)|
|CSV file                           |surface_flowdatabladeVALIDATION_Blade_4.csv|
|                                   |                     (21.1067 MB/s)|
+-----------------------------------------------------------------------+
+--------------------------------------+
|  Inner_Iter|   Time(sec)|    rms[Rho]|
+--------------------------------------+
|        2110|  1.2525e-01|   -5.383051|
|        2120|  1.2504e-01|   -5.438041|
|        2130|  1.2487e-01|   -5.391163|
|        2140|  1.2463e-01|   -5.435305|
|        2150|  1.2439e-01|   -5.452045|
+-----------------------------------------------------------------------+
|        File Writing Summary       |              Filename             |
+-----------------------------------------------------------------------+
|SU2 binary restart                 |restart_flow_databladeVALIDATION_Blade_4.dat|
|                                   |                     (10472.4 MB/s)|
|Paraview                           |volume_flow_databladeVALIDATION_Blade_4.vtu|
|                                   |                     (858.104 MB/s)|
|Paraview surface                   |surface_flowdatabladeVALIDATION_Blade_4.vtu|
|                                   |                      (103.32 MB/s)|
|SU2 ASCII restart                  |restart_flow_databladeVALIDATION_Blade_4.csv|
|                                   |                     (20.8276 MB/s)|
|CSV file                           |surface_flowdatabladeVALIDATION_Blade_4.csv|
|                                   |                     (17.7169 MB/s)|
+-----------------------------------------------------------------------+
+--------------------------------------+
|  Inner_Iter|   Time(sec)|    rms[Rho]|
+--------------------------------------+
|        2160|  1.2531e-01|   -5.417405|
|        2170|  1.2521e-01|   -5.405696|
|        2180|  1.2498e-01|   -5.496853|
|        2190|  1.2474e-01|   -5.493526|
|        2200|  1.2453e-01|   -5.458658|
+-----------------------------------------------------------------------+
|        File Writing Summary       |              Filename             |
+-----------------------------------------------------------------------+
|SU2 binary restart                 |restart_flow_databladeVALIDATION_Blade_4.dat|
|                                   |                     (11820.4 MB/s)|
|Paraview                           |volume_flow_databladeVALIDATION_Blade_4.vtu|
|                                   |                     (989.625 MB/s)|
|Paraview surface                   |surface_flowdatabladeVALIDATION_Blade_4.vtu|
|                                   |                     (93.3537 MB/s)|
|SU2 ASCII restart                  |restart_flow_databladeVALIDATION_Blade_4.csv|
|                                   |                     (21.3225 MB/s)|
|CSV file                           |surface_flowdatabladeVALIDATION_Blade_4.csv|
|                                   |                     (20.2782 MB/s)|
+-----------------------------------------------------------------------+
+--------------------------------------+
|  Inner_Iter|   Time(sec)|    rms[Rho]|
+--------------------------------------+
|        2210|  1.2534e-01|   -5.482804|
|        2220|  1.2508e-01|   -5.509919|
|        2230|  1.2485e-01|   -5.489596|
|        2240|  1.2466e-01|   -5.477845|
|        2250|  1.2442e-01|   -5.571749|
+-----------------------------------------------------------------------+
|        File Writing Summary       |              Filename             |
+-----------------------------------------------------------------------+
|SU2 binary restart                 |restart_flow_databladeVALIDATION_Blade_4.dat|
|                                   |                     (9522.87 MB/s)|
|Paraview                           |volume_flow_databladeVALIDATION_Blade_4.vtu|
|                                   |                     (952.909 MB/s)|
|Paraview surface                   |surface_flowdatabladeVALIDATION_Blade_4.vtu|
|                                   |                     (79.4196 MB/s)|
|SU2 ASCII restart                  |restart_flow_databladeVALIDATION_Blade_4.csv|
|                                   |                     (20.8985 MB/s)|
|CSV file                           |surface_flowdatabladeVALIDATION_Blade_4.csv|
|                                   |                     (18.7525 MB/s)|
+-----------------------------------------------------------------------+
+--------------------------------------+
|  Inner_Iter|   Time(sec)|    rms[Rho]|
+--------------------------------------+
|        2260|  1.2522e-01|   -5.572827|
|        2270|  1.2501e-01|   -5.529470|
|        2280|  1.2480e-01|   -5.513942|
|        2290|  1.2456e-01|   -5.561183|
|        2300|  1.2433e-01|   -5.548511|
+-----------------------------------------------------------------------+
|        File Writing Summary       |              Filename             |
+-----------------------------------------------------------------------+
|SU2 binary restart                 |restart_flow_databladeVALIDATION_Blade_4.dat|
|                                   |                     (11376.9 MB/s)|
|Paraview                           |volume_flow_databladeVALIDATION_Blade_4.vtu|
|                                   |                     (968.301 MB/s)|
|Paraview surface                   |surface_flowdatabladeVALIDATION_Blade_4.vtu|
|                                   |                     (92.6221 MB/s)|
|SU2 ASCII restart                  |restart_flow_databladeVALIDATION_Blade_4.csv|
|                                   |                     (20.7175 MB/s)|
|CSV file                           |surface_flowdatabladeVALIDATION_Blade_4.csv|
|                                   |                     (19.9341 MB/s)|
+-----------------------------------------------------------------------+
+--------------------------------------+
|  Inner_Iter|   Time(sec)|    rms[Rho]|
+--------------------------------------+
|        2310|  1.2514e-01|   -5.509249|
|        2320|  1.2493e-01|   -5.611675|
|        2330|  1.2478e-01|   -5.573943|
|        2340|  1.2457e-01|   -5.616162|
|        2350|  1.2436e-01|   -5.577934|
+-----------------------------------------------------------------------+
|        File Writing Summary       |              Filename             |
+-----------------------------------------------------------------------+
|SU2 binary restart                 |restart_flow_databladeVALIDATION_Blade_4.dat|
|                                   |                     (10967.8 MB/s)|
|Paraview                           |volume_flow_databladeVALIDATION_Blade_4.vtu|
|                                   |                     (925.278 MB/s)|
|Paraview surface                   |surface_flowdatabladeVALIDATION_Blade_4.vtu|
|                                   |                     (94.1337 MB/s)|
[...]
+-----------------------------------------------------------------------+
|        File Writing Summary       |              Filename             |
+-----------------------------------------------------------------------+
|SU2 binary restart                 |restart_flow_databladeVALIDATION_Blade_4.dat|
|                                   |                     (7114.06 MB/s)|
|Paraview                           |volume_flow_databladeVALIDATION_Blade_4.vtu|
|                                   |                     (877.642 MB/s)|
|Paraview surface                   |surface_flowdatabladeVALIDATION_Blade_4.vtu|
|                                   |                     (82.2566 MB/s)|
|SU2 ASCII restart                  |restart_flow_databladeVALIDATION_Blade_4.csv|
|                                   |                     (20.7041 MB/s)|
|CSV file                           |surface_flowdatabladeVALIDATION_Blade_4.csv|
|                                   |                     (18.9999 MB/s)|
+-----------------------------------------------------------------------+
+--------------------------------------+
|  Inner_Iter|   Time(sec)|    rms[Rho]|
+--------------------------------------+
|        3160|  1.2459e-01|   -6.327548|
|        3170|  1.2444e-01|   -6.285193|
|        3180|  1.2429e-01|   -6.327098|
|        3190|  1.2411e-01|   -6.397361|
|        3200|  1.2395e-01|   -6.399567|
+-----------------------------------------------------------------------+
|        File Writing Summary       |              Filename             |
+-----------------------------------------------------------------------+
|SU2 binary restart                 |restart_flow_databladeVALIDATION_Blade_4.dat|
|                                   |                     (11992.9 MB/s)|
|Paraview                           |volume_flow_databladeVALIDATION_Blade_4.vtu|
|                                   |                     (900.553 MB/s)|
|Paraview surface                   |surface_flowdatabladeVALIDATION_Blade_4.vtu|
|                                   |                     (93.6657 MB/s)|
|SU2 ASCII restart                  |restart_flow_databladeVALIDATION_Blade_4.csv|
|                                   |                     (21.2163 MB/s)|
|CSV file                           |surface_flowdatabladeVALIDATION_Blade_4.csv|
|                                   |                     (21.1677 MB/s)|
+-----------------------------------------------------------------------+
+--------------------------------------+
|  Inner_Iter|   Time(sec)|    rms[Rho]|
+--------------------------------------+
|        3210|  1.2452e-01|   -6.363479|
|        3220|  1.2436e-01|   -6.403419|
|        3230|  1.2419e-01|   -6.407753|
|        3240|  1.2403e-01|   -6.370450|
|        3250|  1.2389e-01|   -6.333395|
+-----------------------------------------------------------------------+
|        File Writing Summary       |              Filename             |
+-----------------------------------------------------------------------+
|SU2 binary restart                 |restart_flow_databladeVALIDATION_Blade_4.dat|
|                                   |                     (10815.2 MB/s)|
|Paraview                           |volume_flow_databladeVALIDATION_Blade_4.vtu|
|                                   |                     (964.138 MB/s)|
|Paraview surface                   |surface_flowdatabladeVALIDATION_Blade_4.vtu|
|                                   |                     (97.5583 MB/s)|
|SU2 ASCII restart                  |restart_flow_databladeVALIDATION_Blade_4.csv|
|                                   |                      (20.682 MB/s)|
|CSV file                           |surface_flowdatabladeVALIDATION_Blade_4.csv|
|                                   |                     (21.0644 MB/s)|
+-----------------------------------------------------------------------+
+--------------------------------------+
|  Inner_Iter|   Time(sec)|    rms[Rho]|
+--------------------------------------+
|        3260|  1.2445e-01|   -6.435077|
|        3270|  1.2428e-01|   -6.441198|
|        3280|  1.2413e-01|   -6.407390|
|        3290|  1.2407e-01|   -6.414406|
|        3300|  1.2390e-01|   -6.441767|
+-----------------------------------------------------------------------+
|        File Writing Summary       |              Filename             |
+-----------------------------------------------------------------------+
|SU2 binary restart                 |restart_flow_databladeVALIDATION_Blade_4.dat|
|                                   |                     (10890.2 MB/s)|
|Paraview                           |volume_flow_databladeVALIDATION_Blade_4.vtu|
|                                   |                     (962.498 MB/s)|
|Paraview surface                   |surface_flowdatabladeVALIDATION_Blade_4.vtu|
|                                   |                     (84.7373 MB/s)|
|SU2 ASCII restart                  |restart_flow_databladeVALIDATION_Blade_4.csv|
|                                   |                     (21.3455 MB/s)|
|CSV file                           |surface_flowdatabladeVALIDATION_Blade_4.csv|
|                                   |                     (20.2245 MB/s)|
+-----------------------------------------------------------------------+
+--------------------------------------+
|  Inner_Iter|   Time(sec)|    rms[Rho]|
+--------------------------------------+
|        3310|  1.2448e-01|   -6.367059|
|        3320|  1.2438e-01|   -6.418351|
|        3330|  1.2430e-01|   -6.419374|
|        3340|  1.2423e-01|   -6.426565|
|        3350|  1.2413e-01|   -6.478244|
+-----------------------------------------------------------------------+
|        File Writing Summary       |              Filename             |
+-----------------------------------------------------------------------+
|SU2 binary restart                 |restart_flow_databladeVALIDATION_Blade_4.dat|
|                                   |                     (10890.2 MB/s)|
|Paraview                           |volume_flow_databladeVALIDATION_Blade_4.vtu|
|                                   |                     (855.387 MB/s)|
|Paraview surface                   |surface_flowdatabladeVALIDATION_Blade_4.vtu|
|                                   |                     (98.0025 MB/s)|
|SU2 ASCII restart                  |restart_flow_databladeVALIDATION_Blade_4.csv|
|                                   |                     (20.6211 MB/s)|
|CSV file                           |surface_flowdatabladeVALIDATION_Blade_4.csv|
|                                   |                     (19.6067 MB/s)|
+-----------------------------------------------------------------------+
+--------------------------------------+
|  Inner_Iter|   Time(sec)|    rms[Rho]|
+--------------------------------------+
|        3360|  1.2473e-01|   -6.487940|
|        3370|  1.2463e-01|   -6.479041|
|        3380|  1.2455e-01|   -6.519971|
|        3390|  1.2447e-01|   -6.555989|
|        3400|  1.2437e-01|   -6.559107|
+-----------------------------------------------------------------------+
|        File Writing Summary       |              Filename             |
+-----------------------------------------------------------------------+
|SU2 binary restart                 |restart_flow_databladeVALIDATION_Blade_4.dat|
|                                   |                     (9462.64 MB/s)|
|Paraview                           |volume_flow_databladeVALIDATION_Blade_4.vtu|
|                                   |                     (910.737 MB/s)|
|Paraview surface                   |surface_flowdatabladeVALIDATION_Blade_4.vtu|
|                                   |                     (86.0652 MB/s)|
|SU2 ASCII restart                  |restart_flow_databladeVALIDATION_Blade_4.csv|
|                                   |                     (20.3022 MB/s)|
|CSV file                           |surface_flowdatabladeVALIDATION_Blade_4.csv|
|                                   |                     (19.3139 MB/s)|
+-----------------------------------------------------------------------+
+--------------------------------------+
|  Inner_Iter|   Time(sec)|    rms[Rho]|
+--------------------------------------+
|        3410|  1.2497e-01|   -6.583885|
|        3420|  1.2487e-01|   -6.615507|
|        3430|  1.2474e-01|   -6.627034|
|        3440|  1.2460e-01|   -6.665523|
|        3450|  1.2443e-01|   -6.679119|
+-----------------------------------------------------------------------+
|        File Writing Summary       |              Filename             |
+-----------------------------------------------------------------------+
|SU2 binary restart                 |restart_flow_databladeVALIDATION_Blade_4.dat|
|                                   |                     (10594.8 MB/s)|
|Paraview                           |volume_flow_databladeVALIDATION_Blade_4.vtu|
|                                   |                     (921.342 MB/s)|
|Paraview surface                   |surface_flowdatabladeVALIDATION_Blade_4.vtu|
|                                   |                     (127.471 MB/s)|
|SU2 ASCII restart                  |restart_flow_databladeVALIDATION_Blade_4.csv|
|                                   |                     (20.4691 MB/s)|
|CSV file                           |surface_flowdatabladeVALIDATION_Blade_4.csv|
|                                   |                      (19.387 MB/s)|
+-----------------------------------------------------------------------+
+--------------------------------------+
|  Inner_Iter|   Time(sec)|    rms[Rho]|
+--------------------------------------+
|        3460|  1.2507e-01|   -6.654141|
|        3470|  1.2498e-01|   -6.684473|
|        3480|  1.2491e-01|   -6.686731|
|        3490|  1.2485e-01|   -6.707201|
|        3500|  1.2478e-01|   -6.739248|
+-----------------------------------------------------------------------+
|        File Writing Summary       |              Filename             |
+-----------------------------------------------------------------------+
|SU2 binary restart                 |restart_flow_databladeVALIDATION_Blade_4.dat|
|                                   |                     (11885.9 MB/s)|
|Paraview                           |volume_flow_databladeVALIDATION_Blade_4.vtu|
|                                   |                     (763.562 MB/s)|
|Paraview surface                   |surface_flowdatabladeVALIDATION_Blade_4.vtu|
|                                   |                     (95.5212 MB/s)|
|SU2 ASCII restart                  |restart_flow_databladeVALIDATION_Blade_4.csv|
|                                   |                      (21.004 MB/s)|
|CSV file                           |surface_flowdatabladeVALIDATION_Blade_4.csv|
|                                   |                     (20.4396 MB/s)|
+-----------------------------------------------------------------------+
+--------------------------------------+
|  Inner_Iter|   Time(sec)|    rms[Rho]|
+--------------------------------------+
|        3510|  1.2534e-01|   -6.747903|
|        3520|  1.2532e-01|   -6.744576|
|        3530|  1.2525e-01|   -6.770594|
|        3540|  1.2518e-01|   -6.809352|
|        3550|  1.2511e-01|   -6.819401|
+-----------------------------------------------------------------------+
|        File Writing Summary       |              Filename             |
+-----------------------------------------------------------------------+
|SU2 binary restart                 |restart_flow_databladeVALIDATION_Blade_4.dat|
|                                   |                     (11635.6 MB/s)|
|Paraview                           |volume_flow_databladeVALIDATION_Blade_4.vtu|
|                                   |                     (791.776 MB/s)|
|Paraview surface                   |surface_flowdatabladeVALIDATION_Blade_4.vtu|
|                                   |                     (11.2109 MB/s)|
|SU2 ASCII restart                  |restart_flow_databladeVALIDATION_Blade_4.csv|
|                                   |                     (20.3861 MB/s)|
|CSV file                           |surface_flowdatabladeVALIDATION_Blade_4.csv|
|                                   |                     (20.3947 MB/s)|
+-----------------------------------------------------------------------+
+--------------------------------------+
|  Inner_Iter|   Time(sec)|    rms[Rho]|
+--------------------------------------+
|        3560|  1.2568e-01|   -6.823710|
|        3570|  1.2559e-01|   -6.849292|
|        3580|  1.2550e-01|   -6.858765|
|        3590|  1.2541e-01|   -6.851679|
|        3600|  1.2533e-01|   -6.878170|
+-----------------------------------------------------------------------+
|        File Writing Summary       |              Filename             |
+-----------------------------------------------------------------------+
|SU2 binary restart                 |restart_flow_databladeVALIDATION_Blade_4.dat|
|                                   |                     (10858.9 MB/s)|
|Paraview                           |volume_flow_databladeVALIDATION_Blade_4.vtu|
|                                   |                     (931.273 MB/s)|
|Paraview surface                   |surface_flowdatabladeVALIDATION_Blade_4.vtu|
|                                   |                     (97.4321 MB/s)|
|SU2 ASCII restart                  |restart_flow_databladeVALIDATION_Blade_4.csv|
|                                   |                     (20.7536 MB/s)|
|CSV file                           |surface_flowdatabladeVALIDATION_Blade_4.csv|
|                                   |                     (18.9565 MB/s)|
+-----------------------------------------------------------------------+
+--------------------------------------+
|  Inner_Iter|   Time(sec)|    rms[Rho]|
+--------------------------------------+
|        3610|  1.2589e-01|   -6.918825|
|        3620|  1.2579e-01|   -6.918609|
|        3630|  1.2568e-01|   -6.931063|
|        3640|  1.2556e-01|   -6.945875|
|        3650|  1.2541e-01|   -6.981815|
+-----------------------------------------------------------------------+
|        File Writing Summary       |              Filename             |
+-----------------------------------------------------------------------+
|SU2 binary restart                 |restart_flow_databladeVALIDATION_Blade_4.dat|
|                                   |                     (11591.4 MB/s)|
|Paraview                           |volume_flow_databladeVALIDATION_Blade_4.vtu|
|                                   |                     (961.684 MB/s)|
|Paraview surface                   |surface_flowdatabladeVALIDATION_Blade_4.vtu|
|                                   |                     (102.647 MB/s)|
|SU2 ASCII restart                  |restart_flow_databladeVALIDATION_Blade_4.csv|
|                                   |                     (21.2531 MB/s)|
|CSV file                           |surface_flowdatabladeVALIDATION_Blade_4.csv|
|                                   |                     (18.0799 MB/s)|
+-----------------------------------------------------------------------+
+--------------------------------------+
|  Inner_Iter|   Time(sec)|    rms[Rho]|
+--------------------------------------+
|        3660|  1.2589e-01|   -6.982379|
|        3670|  1.2576e-01|   -6.970535|
|        3680|  1.2562e-01|   -6.969663|
|        3690|  1.2547e-01|   -6.974217|
|        3700|  1.2534e-01|   -6.958900|
+-----------------------------------------------------------------------+
|        File Writing Summary       |              Filename             |
+-----------------------------------------------------------------------+
|SU2 binary restart                 |restart_flow_databladeVALIDATION_Blade_4.dat|
|                                   |                     (10607.6 MB/s)|
|Paraview                           |volume_flow_databladeVALIDATION_Blade_4.vtu|
|                                   |                     (786.922 MB/s)|
|Paraview surface                   |surface_flowdatabladeVALIDATION_Blade_4.vtu|
|                                   |                     (87.2773 MB/s)|
|SU2 ASCII restart                  |restart_flow_databladeVALIDATION_Blade_4.csv|
|                                   |                       (21.21 MB/s)|
|CSV file                           |surface_flowdatabladeVALIDATION_Blade_4.csv|
|                                   |                      (21.613 MB/s)|
+-----------------------------------------------------------------------+
+--------------------------------------+
|  Inner_Iter|   Time(sec)|    rms[Rho]|
+--------------------------------------+
|        3710|  1.2582e-01|   -6.951724|
|        3720|  1.2568e-01|   -6.991894|
|        3728|  1.2556e-01|   -7.006202|

----------------------------- Solver Exit -------------------------------
All convergence criteria satisfied.
+-----------------------------------------------------------------------+
|      Convergence Field     |     Value    |   Criterion  |  Converged |
+-----------------------------------------------------------------------+
|                    rms[Rho]|       -7.0062|          < -7|         Yes|
+-----------------------------------------------------------------------+
-------------------------------------------------------------------------
+-----------------------------------------------------------------------+
|        File Writing Summary       |              Filename             |
+-----------------------------------------------------------------------+
|SU2 binary restart                 |restart_flow_databladeVALIDATION_Blade_4.dat|
|                                   |                       (11514 MB/s)|
|Paraview                           |volume_flow_databladeVALIDATION_Blade_4.vtu|
|                                   |                     (979.144 MB/s)|
|Paraview surface                   |surface_flowdatabladeVALIDATION_Blade_4.vtu|
|                                   |                     (100.532 MB/s)|
|SU2 ASCII restart                  |restart_flow_databladeVALIDATION_Blade_4.csv|
|                                   |                     (21.0007 MB/s)|
|CSV file                           |surface_flowdatabladeVALIDATION_Blade_4.csv|
|                                   |                     (20.2417 MB/s)|
+-----------------------------------------------------------------------+

--------------------------- Finalizing Solver ---------------------------
Deleted CNumerics container.
Deleted CIntegration container.
Deleted CSolver container.
Deleted CIteration container.
Deleted CInterface container.
Deleted CGeometry container.
Deleted CFreeFormDefBox class.
Deleted CSurfaceMovement class.
Deleted CVolumetricMovement class.
Deleted CConfig container.
Deleted nInst container.
Deleted COutput class.
-------------------------------------------------------------------------


-------------------------- Performance Summary --------------------------
Simulation totals:
   Wall-clock time (hrs):    0.130828 |            Core-hrs:     1.56993
                   Cores:          12 |          DOFs/point:           5
             Points/core:     5001.92 |   Ghost points/core:      153.75
 Ghost/Owned Point Ratio:   0.0307382 | 

Preprocessing phase:
       Preproc. Time (s):    0.453612 |   Preproc. Time (%):   0.0963126

Compute phase:
        Compute Time (s):     468.215 |    Compute Time (%):      99.413
         Iteration count:        3729 |         Avg. s/iter:     0.12556
     Core-s/iter/Mpoints:     24.3539 |           Mpoints/s:    0.492735

Output phase:
         Output Time (s):     2.31095 |     Output Time (%):    0.490668
            Output count:           1 |       Avg. s/output:     2.31095
 Restart Aggr. BW (MB/s):      805991 |           MB/s/core:     67165.9
-------------------------------------------------------------------------


------------------------- Exit Success (SU2_CFD) ------------------------

