
-------------------------------------------------------------------------
|    ___ _   _ ___                                                      |
|   / __| | | |_  )   Release 8.0.1 "Harrier"                           |
|   \__ \ |_| |/ /                                                      |
|   |___/\___//___|   Suite (Computational Fluid Dynamics Code)         |
|                                                                       |
-------------------------------------------------------------------------
| SU2 Project Website: https://su2code.github.io                        |
|                                                                       |
| The SU2 Project is maintained by the SU2 Foundation                   |
| (http://su2foundation.org)                                            |
-------------------------------------------------------------------------
| Copyright 2012-2024, SU2 Contributors                                 |
|                                                                       |
| SU2 is free software; you can redistribute it and/or                  |
| modify it under the terms of the GNU Lesser General Public            |
| License as published by the Free Software Foundation; either          |
| version 2.1 of the License, or (at your option) any later version.    |
|                                                                       |
| SU2 is distributed in the hope that it will be useful,                |
| but WITHOUT ANY WARRANTY; without even the implied warranty of        |
| MERCHANTABILITY or FITNESS FOR A PARTICULAR PURPOSE. See the GNU      |
| Lesser General Public License for more details.                       |
|                                                                       |
| You should have received a copy of the GNU Lesser General Public      |
| License along with SU2. If not, see <http://www.gnu.org/licenses/>.   |
-------------------------------------------------------------------------

Parsing config file for zone 0

----------------- Physical Case Definition ( Zone 0 ) -------------------
Compressible RANS equations.
Turbulence model: Spalart-Allmaras-noft2-BCM
Hybrid RANS/LES: No Hybrid RANS/LES
Mach number: 0.5.
Angle of attack (AoA): -31 deg, and angle of sideslip (AoS): 0 deg.
Reynolds number: 600000. Reference length 1.00071.
No restart solution, use the values at infinity (freestream).
Dimensional simulation.
The reference area will be computed using y(2D) or z(3D) projection.
The semi-span will be computed using the max y(3D) value.
The reference length is 1.00071 m.
Reference origin for moment evaluation is (0, 0, 0).
Surface(s) where the force coefficients are evaluated: blade1.

Surface(s) plotted in the output file: blade1.
Surface(s) to be analyzed in detail: inlet, outlet, blade1.
Input mesh file name: cascade2D_databladeVALIDATION_Blade_18.su2

--------------- Space Numerical Integration ( Zone 0 ) ------------------
Jameson-Schmidt-Turkel scheme (2nd order in space) for the flow inviscid terms.
JST viscous coefficients (2nd & 4th): 0.5, 0.02.
The method includes a grid stretching correction (p = 0.3).
Scalar upwind solver for the turbulence model.
First order integration in space.
Average of gradients with correction (viscous flow terms).
Average of gradients with correction (viscous turbulence terms).
Gradient for upwind reconstruction: inverse-distance weighted Least-Squares.
Gradient for viscous and source terms: inverse-distance weighted Least-Squares.

--------------- Time Numerical Integration  ( Zone 0 ) ------------------
Local time stepping (steady state simulation).
Euler implicit method for the flow equations.
FGMRES is used for solving the linear system.
Using a LU-SGS preconditioning.
Convergence criteria of the linear solver: 0.0001.
Max number of linear iterations: 10.
V Multigrid Cycle, with 3 multigrid levels.
Damping factor for the residual restriction: 0.75.
Damping factor for the correction prolongation: 0.75.
CFL adaptation. Factor down: 0.1, factor up: 1.2,
                lower limit: 0.1, upper limit: 100,
                acceptable linear residual: 0.001.
+-------------------------------------------+
|  MG Level| Presmooth|PostSmooth|CorrectSmo|
+-------------------------------------------+
|         0|         1|         0|         1|
|         1|         2|         2|         2|
|         2|         3|         3|         3|
|         3|         3|         0|         0|
+-------------------------------------------+
Courant-Friedrichs-Lewy number:       12
Euler implicit time integration for the turbulence model.

------------------ Convergence Criteria  ( Zone 0 ) ---------------------
Maximum number of solver subiterations: 7000.
Begin convergence monitoring at iteration 500.
Residual minimum value: 1e-7.
Cauchy series min. value: 1e-10.
Number of Cauchy elements: 100.
Begin windowed time average at iteration 0.

-------------------- Output Information ( Zone 0 ) ----------------------
File writing frequency: 
+------------------------------------+
|                     File| Frequency|
+------------------------------------+
|                  RESTART|        50|
|                 PARAVIEW|        50|
|         SURFACE_PARAVIEW|        50|
|                      CSV|        50|
|              SURFACE_CSV|        50|
+------------------------------------+
Writing the convergence history file every 1 inner iterations.
Writing the screen convergence history every 10 inner iterations.
The tabular file format is CSV (.csv).
Convergence history file name: history_databladeVALIDATION_Blade_18.
Forces breakdown file name: forces_breakdown.dat.
Surface file name: surface_flowdatabladeVALIDATION_Blade_18.
Volume file name: volume_flow_databladeVALIDATION_Blade_18.
Restart file name: restart_flow_databladeVALIDATION_Blade_18.dat.

------------- Config File Boundary Information ( Zone 0 ) ---------------
+-----------------------------------------------------------------------+
|                        Marker Type|                        Marker Name|
+-----------------------------------------------------------------------+
|                  Periodic boundary|               symmetricWallsBOTTOM|
|                                   |                  symmetricWallsTOP|
+-----------------------------------------------------------------------+
|                     Inlet boundary|                              inlet|
+-----------------------------------------------------------------------+
|                    Outlet boundary|                             outlet|
+-----------------------------------------------------------------------+
|                     Heat flux wall|                             blade1|
|                                   |                             blade2|
+-----------------------------------------------------------------------+

-------------------- Output Preprocessing ( Zone 0 ) --------------------
  Info: Ignoring the following screen output fields:
  LINSOL_ITER_TRANS, LINSOL_RESIDUAL_TRANS
Screen output fields: INNER_ITER, CUR_TIME, RMS_DENSITY
  Info: Ignoring the following history output groups:
  RMS_TKE, RMS_DISSIPATION
History output group(s): INNER_ITER, WALL_TIME, RMS_DENSITY, RMS_MOMENTUM-X, RMS_ENERGY, LINSOL, CFL_NUMBER, FLOW_COEFF_SURF, AERO_COEFF_SURF
Convergence field(s): RMS_DENSITY
Warning: No (valid) fields chosen for time convergence monitoring. Time convergence monitoring inactive.
Volume output fields: COORDINATES, SOLUTION, PRIMITIVE, RESIDUAL, TIMESTEP, MESH_QUALITY, VORTEX_IDENTIFICATION

------------------- Geometry Preprocessing ( Zone 0 ) -------------------
Two dimensional problem.
58923 grid points before partitioning.
88236 volume elements before partitioning.
5 surface markers.
32 boundary elements in index 0 (Marker = inlet).
473 boundary elements in index 1 (Marker = symmetricWallsBOTTOM).
473 boundary elements in index 2 (Marker = symmetricWallsTOP).
32 boundary elements in index 3 (Marker = outlet).
1144 boundary elements in index 4 (Marker = blade1).
Executing the partitioning functions.
Building the graph adjacency structure.
Calling ParMETIS... graph partitioning complete (1272 edge cuts).
Distributing ParMETIS coloring.
Rebalancing vertices.
Rebalancing volume element connectivity.
Rebalancing markers and surface elements.
60542 vertices including ghost points. 
89497 interior elements including halo cells. 
61707 triangles.
27790 quadrilaterals.
Establishing MPI communication patterns.
Setting point connectivity.
Renumbering points (Reverse Cuthill McKee Ordering).
Recomputing point connectivity.
Setting element connectivity.
Checking the numerical grid orientation.
All volume elements are correctly orientend.
There has been a re-orientation of 1088 LINE surface elements.
Identifying edges and vertices.
Setting the control volume structure.
Area of the computational grid: 4.03413.
Searching for the closest normal neighbors to the surfaces.
Storing a mapping from global to local point index.
Compute the surface curvature.
Max K: 99.8685. Mean K: 2.78894. Standard deviation K: 10.3834.
Checking for periodicity.
WARNING: Periodicity has been detected. Disabling multigrid. 
Computing mesh quality statistics for the dual control volumes.
+--------------------------------------------------------------+
|           Mesh Quality Metric|        Minimum|        Maximum|
+--------------------------------------------------------------+
|    Orthogonality Angle (deg.)|        29.0114|             90|
|     CV Face Area Aspect Ratio|        1.00009|        441.555|
|           CV Sub-Volume Ratio|              1|        22.4169|
+--------------------------------------------------------------+
Finding max control volume width.
Communicating number of neighbors.
Reference length = 1.02628 m.
Wetted area = 3.6282 m.
Area projection in the x-plane = 1.2983 m, y-plane = 1.02628 m.
Max. coordinate in the x-direction = 1.01736 m, y-direction = 0.935172 m.
Min. coordinate in the x-direction = -0.0089549 m, y-direction = -0.363139 m.
Matching the periodic boundary points for marker pair 1.
 Matched 948 points with a max distance of: 4.12046e-13.
Computing wall distances.

-------------------- Solver Preprocessing ( Zone 0 ) --------------------
Viscous flow: Computing pressure using the ideal gas law
based on the free-stream temperature and a density computed
from the Reynolds number.
Force coefficients computed using free-stream values.

-- Models:
+------------------------------------------------------------------------------+
|          Viscosity Model|        Conductivity Model|              Fluid Model|
+------------------------------------------------------------------------------+
|               SUTHERLAND|          CONSTANT_PRANDTL|                IDEAL_GAS|
+------------------------------------------------------------------------------+
-- Fluid properties:
+------------------------------------------------------------------------------+
|                  Name|    Dim. value|    Ref. value|      Unit|Non-dim. value|
+------------------------------------------------------------------------------+
|        Ref. Viscosity|     1.716e-05|             1|   N.s/m^2|     1.716e-05|
|      Sutherland Temp.|        273.15|             1|         K|        273.15|
|     Sutherland Const.|         110.4|             1|         K|         110.4|
+------------------------------------------------------------------------------+
|        Prandtl (Lam.)|             -|             -|         -|          0.72|
|       Prandtl (Turb.)|             -|             -|         -|           0.9|
+------------------------------------------------------------------------------+
|          Gas Constant|       287.058|             1|  N.m/kg.K|       287.058|
|      Spec. Heat Ratio|             -|             -|         -|           1.4|
+------------------------------------------------------------------------------+
-- Initial and free-stream conditions:
+------------------------------------------------------------------------------+
|                  Name|    Dim. value|    Ref. value|      Unit|Non-dim. value|
+------------------------------------------------------------------------------+
|       Static Pressure|       5489.94|             1|        Pa|       5489.94|
|               Density|     0.0637495|             1|    kg/m^3|     0.0637495|
|           Temperature|           300|             1|         K|           300|
|          Total Energy|        230364|             1|   m^2/s^2|        230364|
|            Velocity-X|       148.814|             1|       m/s|       148.814|
|            Velocity-Y|      -89.4167|             1|       m/s|      -89.4167|
|    Velocity Magnitude|       173.612|             1|       m/s|       173.612|
+------------------------------------------------------------------------------+
|             Viscosity|   1.84592e-05|             1|   N.s/m^2|   1.84592e-05|
|          Conductivity|             -|             1|   W/m^2.K|             -|
|     Turb. Kin. Energy|       55.3843|             1|   m^2/s^2|       55.3843|
|     Spec. Dissipation|   1.91272e+06|             1|       1/s|   1.91272e+06|
+------------------------------------------------------------------------------+
|           Mach Number|             -|             -|         -|           0.5|
|       Reynolds Number|             -|             -|         -|        600000|
+------------------------------------------------------------------------------+
Initialize Jacobian structure (Navier-Stokes). MG level: 0.
Initialize Jacobian structure (SA model).

------------------- Numerics Preprocessing ( Zone 0 ) -------------------

----------------- Integration Preprocessing ( Zone 0 ) ------------------

------------------- Iteration Preprocessing ( Zone 0 ) ------------------
Euler/Navier-Stokes/RANS fluid iteration.

------------------------------ Begin Solver -----------------------------

Simulation Run using the Single-zone Driver
WARNING: SU2 was not compiled for an AVX-capable architecture. Performance could be better,
         see https://su2code.github.io/docs_v7/Build-SU2-Linux-MacOS/#compiler-optimizations
+--------------------------------------+
|  Inner_Iter|    Cur_Time|    rms[Rho]|
+--------------------------------------+
|           0|  0.0000e+00|   -2.361272|
|          10|  0.0000e+00|   -3.003098|
|          20|  0.0000e+00|   -2.796684|
|          30|  0.0000e+00|   -2.807006|
|          40|  0.0000e+00|   -2.759725|
|          50|  0.0000e+00|   -2.725896|
+-----------------------------------------------------------------------+
|        File Writing Summary       |              Filename             |
+-----------------------------------------------------------------------+
|SU2 binary restart                 |restart_flow_databladeVALIDATION_Blade_18.dat|
|                                   |                     (13175.1 MB/s)|
|Paraview                           |volume_flow_databladeVALIDATION_Blade_18.vtu|
|                                   |                     (1022.45 MB/s)|
|Paraview surface                   |surface_flowdatabladeVALIDATION_Blade_18.vtu|
|                                   |                     (126.873 MB/s)|
|SU2 ASCII restart                  |restart_flow_databladeVALIDATION_Blade_18.csv|
|                                   |                     (21.7098 MB/s)|
|CSV file                           |surface_flowdatabladeVALIDATION_Blade_18.csv|
|                                   |                       (20.86 MB/s)|
+-----------------------------------------------------------------------+
+--------------------------------------+
|  Inner_Iter|    Cur_Time|    rms[Rho]|
+--------------------------------------+
|          60|  0.0000e+00|   -2.828196|
|          70|  0.0000e+00|   -2.923614|
|          80|  0.0000e+00|   -2.886392|
|          90|  0.0000e+00|   -2.842380|
|         100|  0.0000e+00|   -2.953038|
+-----------------------------------------------------------------------+
|        File Writing Summary       |              Filename             |
+-----------------------------------------------------------------------+
|SU2 binary restart                 |restart_flow_databladeVALIDATION_Blade_18.dat|
|                                   |                     (12266.8 MB/s)|
|Paraview                           |volume_flow_databladeVALIDATION_Blade_18.vtu|
|                                   |                     (965.947 MB/s)|
|Paraview surface                   |surface_flowdatabladeVALIDATION_Blade_18.vtu|
|                                   |                     (78.6418 MB/s)|
|SU2 ASCII restart                  |restart_flow_databladeVALIDATION_Blade_18.csv|
|                                   |                     (21.4664 MB/s)|
|CSV file                           |surface_flowdatabladeVALIDATION_Blade_18.csv|
|                                   |                     (20.8386 MB/s)|
+-----------------------------------------------------------------------+
+--------------------------------------+
|  Inner_Iter|    Cur_Time|    rms[Rho]|
+--------------------------------------+
|         110|  0.0000e+00|   -2.909888|
|         120|  0.0000e+00|   -2.884960|
|         130|  0.0000e+00|   -2.982545|
|         140|  0.0000e+00|   -3.081068|
|         150|  0.0000e+00|   -3.044955|
+-----------------------------------------------------------------------+
|        File Writing Summary       |              Filename             |
+-----------------------------------------------------------------------+
|SU2 binary restart                 |restart_flow_databladeVALIDATION_Blade_18.dat|
|                                   |                     (11432.6 MB/s)|
|Paraview                           |volume_flow_databladeVALIDATION_Blade_18.vtu|
|                                   |                     (1027.13 MB/s)|
|Paraview surface                   |surface_flowdatabladeVALIDATION_Blade_18.vtu|
|                                   |                     (90.8074 MB/s)|
|SU2 ASCII restart                  |restart_flow_databladeVALIDATION_Blade_18.csv|
|                                   |                     (21.7248 MB/s)|
|CSV file                           |surface_flowdatabladeVALIDATION_Blade_18.csv|
|                                   |                     (20.7753 MB/s)|
+-----------------------------------------------------------------------+
+--------------------------------------+
|  Inner_Iter|    Cur_Time|    rms[Rho]|
+--------------------------------------+
|         160|  0.0000e+00|   -2.914551|
|         170|  0.0000e+00|   -3.031269|
|         180|  0.0000e+00|   -3.010485|
|         190|  0.0000e+00|   -2.985999|
|         200|  0.0000e+00|   -2.959299|
+-----------------------------------------------------------------------+
|        File Writing Summary       |              Filename             |
+-----------------------------------------------------------------------+
|SU2 binary restart                 |restart_flow_databladeVALIDATION_Blade_18.dat|
|                                   |                     (12061.5 MB/s)|
|Paraview                           |volume_flow_databladeVALIDATION_Blade_18.vtu|
|                                   |                      (1002.5 MB/s)|
|Paraview surface                   |surface_flowdatabladeVALIDATION_Blade_18.vtu|
|                                   |                     (116.815 MB/s)|
|SU2 ASCII restart                  |restart_flow_databladeVALIDATION_Blade_18.csv|
|                                   |                     (21.5363 MB/s)|
|CSV file                           |surface_flowdatabladeVALIDATION_Blade_18.csv|
|                                   |                     (19.3615 MB/s)|
+-----------------------------------------------------------------------+
+--------------------------------------+
|  Inner_Iter|    Cur_Time|    rms[Rho]|
+--------------------------------------+
|         210|  0.0000e+00|   -3.142012|
|         220|  0.0000e+00|   -3.143045|
|         230|  0.0000e+00|   -3.232531|
|         240|  0.0000e+00|   -3.141027|
|         250|  0.0000e+00|   -3.161759|
+-----------------------------------------------------------------------+
|        File Writing Summary       |              Filename             |
+-----------------------------------------------------------------------+
|SU2 binary restart                 |restart_flow_databladeVALIDATION_Blade_18.dat|
|                                   |                     (12472.1 MB/s)|
|Paraview                           |volume_flow_databladeVALIDATION_Blade_18.vtu|
|                                   |                     (873.869 MB/s)|
|Paraview surface                   |surface_flowdatabladeVALIDATION_Blade_18.vtu|
|                                   |                     (64.8757 MB/s)|
|SU2 ASCII restart                  |restart_flow_databladeVALIDATION_Blade_18.csv|
|                                   |                     (21.2108 MB/s)|
|CSV file                           |surface_flowdatabladeVALIDATION_Blade_18.csv|
|                                   |                     (18.8412 MB/s)|
+-----------------------------------------------------------------------+
+--------------------------------------+
|  Inner_Iter|    Cur_Time|    rms[Rho]|
+--------------------------------------+
|         260|  0.0000e+00|   -3.217991|
|         270|  0.0000e+00|   -3.276553|
|         280|  0.0000e+00|   -3.194209|
|         290|  0.0000e+00|   -3.094273|
|         300|  0.0000e+00|   -3.272373|
+-----------------------------------------------------------------------+
|        File Writing Summary       |              Filename             |
+-----------------------------------------------------------------------+
|SU2 binary restart                 |restart_flow_databladeVALIDATION_Blade_18.dat|
|                                   |                       (10764 MB/s)|
|Paraview                           |volume_flow_databladeVALIDATION_Blade_18.vtu|
|                                   |                     (1094.64 MB/s)|
|Paraview surface                   |surface_flowdatabladeVALIDATION_Blade_18.vtu|
|                                   |                     (84.2106 MB/s)|
|SU2 ASCII restart                  |restart_flow_databladeVALIDATION_Blade_18.csv|
|                                   |                     (21.3727 MB/s)|
|CSV file                           |surface_flowdatabladeVALIDATION_Blade_18.csv|
|                                   |                     (18.2277 MB/s)|
+-----------------------------------------------------------------------+
+--------------------------------------+
|  Inner_Iter|    Cur_Time|    rms[Rho]|
+--------------------------------------+
|         310|  0.0000e+00|   -3.190289|
|         320|  0.0000e+00|   -3.080207|
|         330|  0.0000e+00|   -3.231016|
|         340|  0.0000e+00|   -3.257665|
|         350|  0.0000e+00|   -3.144130|
+-----------------------------------------------------------------------+
|        File Writing Summary       |              Filename             |
+-----------------------------------------------------------------------+
|SU2 binary restart                 |restart_flow_databladeVALIDATION_Blade_18.dat|
|                                   |                     (12162.3 MB/s)|
|Paraview                           |volume_flow_databladeVALIDATION_Blade_18.vtu|
|                                   |                     (981.692 MB/s)|
|Paraview surface                   |surface_flowdatabladeVALIDATION_Blade_18.vtu|
|                                   |                     (114.901 MB/s)|
|SU2 ASCII restart                  |restart_flow_databladeVALIDATION_Blade_18.csv|
|                                   |                     (21.1486 MB/s)|
|CSV file                           |surface_flowdatabladeVALIDATION_Blade_18.csv|
|                                   |                     (19.1894 MB/s)|
+-----------------------------------------------------------------------+
+--------------------------------------+
|  Inner_Iter|    Cur_Time|    rms[Rho]|
+--------------------------------------+
|         360|  0.0000e+00|   -3.201368|
|         370|  0.0000e+00|   -3.256909|
|         380|  0.0000e+00|   -3.199724|
|         390|  0.0000e+00|   -2.741828|
|         400|  0.0000e+00|   -2.788814|
+-----------------------------------------------------------------------+
|        File Writing Summary       |              Filename             |
+-----------------------------------------------------------------------+
|SU2 binary restart                 |restart_flow_databladeVALIDATION_Blade_18.dat|
|                                   |                     (10772.9 MB/s)|
|Paraview                           |volume_flow_databladeVALIDATION_Blade_18.vtu|
|                                   |                      (1006.9 MB/s)|
|Paraview surface                   |surface_flowdatabladeVALIDATION_Blade_18.vtu|
|                                   |                     (90.5091 MB/s)|
|SU2 ASCII restart                  |restart_flow_databladeVALIDATION_Blade_18.csv|
|                                   |                     (21.5015 MB/s)|
|CSV file                           |surface_flowdatabladeVALIDATION_Blade_18.csv|
|                                   |                     (19.2387 MB/s)|
+-----------------------------------------------------------------------+
+--------------------------------------+
|  Inner_Iter|    Cur_Time|    rms[Rho]|
+--------------------------------------+
|         410|  0.0000e+00|   -3.027994|
|         420|  0.0000e+00|   -2.830336|
|         430|  0.0000e+00|   -3.077274|
|         440|  0.0000e+00|   -2.958485|
|         450|  0.0000e+00|   -3.029230|
+-----------------------------------------------------------------------+
|        File Writing Summary       |              Filename             |
+-----------------------------------------------------------------------+
|SU2 binary restart                 |restart_flow_databladeVALIDATION_Blade_18.dat|
|                                   |                     (9883.81 MB/s)|
|Paraview                           |volume_flow_databladeVALIDATION_Blade_18.vtu|
|                                   |                     (1060.98 MB/s)|
|Paraview surface                   |surface_flowdatabladeVALIDATION_Blade_18.vtu|
|                                   |                     (90.0947 MB/s)|
|SU2 ASCII restart                  |restart_flow_databladeVALIDATION_Blade_18.csv|
|                                   |                     (21.7173 MB/s)|
|CSV file                           |surface_flowdatabladeVALIDATION_Blade_18.csv|
|                                   |                     (20.7694 MB/s)|
+-----------------------------------------------------------------------+
+--------------------------------------+
|  Inner_Iter|    Cur_Time|    rms[Rho]|
+--------------------------------------+
|         460|  0.0000e+00|   -3.133999|
|         470|  0.0000e+00|   -3.076341|
|         480|  0.0000e+00|   -3.054379|
|         490|  0.0000e+00|   -2.839706|
|         500|  0.0000e+00|   -3.195001|
+-----------------------------------------------------------------------+
|        File Writing Summary       |              Filename             |
+-----------------------------------------------------------------------+
|SU2 binary restart                 |restart_flow_databladeVALIDATION_Blade_18.dat|
|                                   |                     (12108.4 MB/s)|
|Paraview                           |volume_flow_databladeVALIDATION_Blade_18.vtu|
|                                   |                     (1010.53 MB/s)|
|Paraview surface                   |surface_flowdatabladeVALIDATION_Blade_18.vtu|
|                                   |                     (81.8155 MB/s)|
|SU2 ASCII restart                  |restart_flow_databladeVALIDATION_Blade_18.csv|
|                                   |                     (21.5172 MB/s)|
|CSV file                           |surface_flowdatabladeVALIDATION_Blade_18.csv|
|                                   |                     (20.5305 MB/s)|
+-----------------------------------------------------------------------+
+--------------------------------------+
|  Inner_Iter|    Cur_Time|    rms[Rho]|
+--------------------------------------+
|         510|  0.0000e+00|   -3.202491|
|         520|  0.0000e+00|   -2.946395|
|         530|  0.0000e+00|   -3.219242|
|         540|  0.0000e+00|   -3.222661|
|         550|  0.0000e+00|   -3.223323|
+-----------------------------------------------------------------------+
|        File Writing Summary       |              Filename             |
+-----------------------------------------------------------------------+
|SU2 binary restart                 |restart_flow_databladeVALIDATION_Blade_18.dat|
|                                   |                     (12292.9 MB/s)|
|Paraview                           |volume_flow_databladeVALIDATION_Blade_18.vtu|
|                                   |                     (1084.05 MB/s)|
|Paraview surface                   |surface_flowdatabladeVALIDATION_Blade_18.vtu|
|                                   |                     (98.0799 MB/s)|
|SU2 ASCII restart                  |restart_flow_databladeVALIDATION_Blade_18.csv|
|                                   |                     (21.8437 MB/s)|
|CSV file                           |surface_flowdatabladeVALIDATION_Blade_18.csv|
|                                   |                     (19.8495 MB/s)|
+-----------------------------------------------------------------------+
+--------------------------------------+
|  Inner_Iter|    Cur_Time|    rms[Rho]|
+--------------------------------------+
|         560|  0.0000e+00|   -3.223351|
|         570|  0.0000e+00|   -3.223673|
|         580|  0.0000e+00|   -3.007801|
|         590|  0.0000e+00|   -3.216016|
|         600|  0.0000e+00|   -3.235153|
+-----------------------------------------------------------------------+
|        File Writing Summary       |              Filename             |
+-----------------------------------------------------------------------+
|SU2 binary restart                 |restart_flow_databladeVALIDATION_Blade_18.dat|
|                                   |                     (12127.3 MB/s)|
|Paraview                           |volume_flow_databladeVALIDATION_Blade_18.vtu|
|                                   |                     (826.159 MB/s)|
|Paraview surface                   |surface_flowdatabladeVALIDATION_Blade_18.vtu|
|                                   |                     (54.9972 MB/s)|
|SU2 ASCII restart                  |restart_flow_databladeVALIDATION_Blade_18.csv|
|                                   |                     (21.5596 MB/s)|
|CSV file                           |surface_flowdatabladeVALIDATION_Blade_18.csv|
|                                   |                     (20.2524 MB/s)|
+-----------------------------------------------------------------------+
+--------------------------------------+
|  Inner_Iter|    Cur_Time|    rms[Rho]|
+--------------------------------------+
|         610|  0.0000e+00|   -3.214614|
|         620|  0.0000e+00|   -3.227004|
|         630|  0.0000e+00|   -3.183318|
|         640|  0.0000e+00|   -3.080236|
|         650|  0.0000e+00|   -2.795212|
+-----------------------------------------------------------------------+
|        File Writing Summary       |              Filename             |
+-----------------------------------------------------------------------+
|SU2 binary restart                 |restart_flow_databladeVALIDATION_Blade_18.dat|
|                                   |                     (12227.3 MB/s)|
|Paraview                           |volume_flow_databladeVALIDATION_Blade_18.vtu|
|                                   |                     (1044.37 MB/s)|
|Paraview surface                   |surface_flowdatabladeVALIDATION_Blade_18.vtu|
|                                   |                      (119.73 MB/s)|
|SU2 ASCII restart                  |restart_flow_databladeVALIDATION_Blade_18.csv|
|                                   |                     (21.3169 MB/s)|
|CSV file                           |surface_flowdatabladeVALIDATION_Blade_18.csv|
|                                   |                     (20.9451 MB/s)|
+-----------------------------------------------------------------------+
+--------------------------------------+
|  Inner_Iter|    Cur_Time|    rms[Rho]|
+--------------------------------------+
|         660|  0.0000e+00|   -2.937799|
|         670|  0.0000e+00|   -2.936939|
|         680|  0.0000e+00|   -2.911094|
|         690|  0.0000e+00|   -2.740505|
|         700|  0.0000e+00|   -2.757569|
+-----------------------------------------------------------------------+
|        File Writing Summary       |              Filename             |
+-----------------------------------------------------------------------+
|SU2 binary restart                 |restart_flow_databladeVALIDATION_Blade_18.dat|
|                                   |                     (13007.8 MB/s)|
|Paraview                           |volume_flow_databladeVALIDATION_Blade_18.vtu|
|                                   |                     (1013.87 MB/s)|
|Paraview surface                   |surface_flowdatabladeVALIDATION_Blade_18.vtu|
|                                   |                     (94.9807 MB/s)|
|SU2 ASCII restart                  |restart_flow_databladeVALIDATION_Blade_18.csv|
|                                   |                      (21.531 MB/s)|
|CSV file                           |surface_flowdatabladeVALIDATION_Blade_18.csv|
|                                   |                     (19.6483 MB/s)|
+-----------------------------------------------------------------------+
+--------------------------------------+
|  Inner_Iter|    Cur_Time|    rms[Rho]|
+--------------------------------------+
|         710|  0.0000e+00|   -2.791904|
|         720|  0.0000e+00|   -2.834830|
|         730|  0.0000e+00|   -2.867472|
|         740|  0.0000e+00|   -2.981655|
|         750|  0.0000e+00|   -3.004561|
+-----------------------------------------------------------------------+
|        File Writing Summary       |              Filename             |
+-----------------------------------------------------------------------+
|SU2 binary restart                 |restart_flow_databladeVALIDATION_Blade_18.dat|
|                                   |                     (12777.2 MB/s)|
|Paraview                           |volume_flow_databladeVALIDATION_Blade_18.vtu|
|                                   |                     (1042.28 MB/s)|
|Paraview surface                   |surface_flowdatabladeVALIDATION_Blade_18.vtu|
|                                   |                     (123.958 MB/s)|
|SU2 ASCII restart                  |restart_flow_databladeVALIDATION_Blade_18.csv|
|                                   |                     (21.1843 MB/s)|
|CSV file                           |surface_flowdatabladeVALIDATION_Blade_18.csv|
|                                   |                     (19.4681 MB/s)|
+-----------------------------------------------------------------------+
+--------------------------------------+
|  Inner_Iter|    Cur_Time|    rms[Rho]|
+--------------------------------------+
|         760|  0.0000e+00|   -3.095224|
|         770|  0.0000e+00|   -3.216396|
|         780|  0.0000e+00|   -3.276911|
|         790|  0.0000e+00|   -3.405109|
|         800|  0.0000e+00|   -3.408145|
+-----------------------------------------------------------------------+
|        File Writing Summary       |              Filename             |
+-----------------------------------------------------------------------+
|SU2 binary restart                 |restart_flow_databladeVALIDATION_Blade_18.dat|
|                                   |                     (12558.7 MB/s)|
|Paraview                           |volume_flow_databladeVALIDATION_Blade_18.vtu|
|                                   |                     (1053.69 MB/s)|
|Paraview surface                   |surface_flowdatabladeVALIDATION_Blade_18.vtu|
|                                   |                     (106.159 MB/s)|
|SU2 ASCII restart                  |restart_flow_databladeVALIDATION_Blade_18.csv|
|                                   |                     (21.3656 MB/s)|
|CSV file                           |surface_flowdatabladeVALIDATION_Blade_18.csv|
|                                   |                     (20.7847 MB/s)|
+-----------------------------------------------------------------------+
+--------------------------------------+
|  Inner_Iter|    Cur_Time|    rms[Rho]|
+--------------------------------------+
|         810|  0.0000e+00|   -3.335801|
|         820|  0.0000e+00|   -3.419871|
|         830|  0.0000e+00|   -3.407061|
|         840|  0.0000e+00|   -3.512838|
|         850|  0.0000e+00|   -3.479194|
+-----------------------------------------------------------------------+
|        File Writing Summary       |              Filename             |
+-----------------------------------------------------------------------+
|SU2 binary restart                 |restart_flow_databladeVALIDATION_Blade_18.dat|
|                                   |                     (11308.9 MB/s)|
|Paraview                           |volume_flow_databladeVALIDATION_Blade_18.vtu|
|                                   |                     (954.102 MB/s)|
|Paraview surface                   |surface_flowdatabladeVALIDATION_Blade_18.vtu|
|                                   |                     (100.449 MB/s)|
|SU2 ASCII restart                  |restart_flow_databladeVALIDATION_Blade_18.csv|
|                                   |                     (21.4905 MB/s)|
|CSV file                           |surface_flowdatabladeVALIDATION_Blade_18.csv|
|                                   |                     (20.8981 MB/s)|
+-----------------------------------------------------------------------+
+--------------------------------------+
|  Inner_Iter|    Cur_Time|    rms[Rho]|
+--------------------------------------+
|         860|  0.0000e+00|   -3.570124|
|         870|  0.0000e+00|   -3.705275|
|         880|  0.0000e+00|   -3.704191|
|         890|  0.0000e+00|   -3.602672|
|         900|  0.0000e+00|   -3.689693|
+-----------------------------------------------------------------------+
|        File Writing Summary       |              Filename             |
+-----------------------------------------------------------------------+
|SU2 binary restart                 |restart_flow_databladeVALIDATION_Blade_18.dat|
|                                   |                     (12306.5 MB/s)|
|Paraview                           |volume_flow_databladeVALIDATION_Blade_18.vtu|
|                                   |                     (1061.58 MB/s)|
|Paraview surface                   |surface_flowdatabladeVALIDATION_Blade_18.vtu|
|                                   |                     (84.4841 MB/s)|
|SU2 ASCII restart                  |restart_flow_databladeVALIDATION_Blade_18.csv|
|                                   |                     (21.4624 MB/s)|
|CSV file                           |surface_flowdatabladeVALIDATION_Blade_18.csv|
|                                   |                     (19.1398 MB/s)|
+-----------------------------------------------------------------------+
+--------------------------------------+
|  Inner_Iter|    Cur_Time|    rms[Rho]|
+--------------------------------------+
|         910|  0.0000e+00|   -3.747988|
|         920|  0.0000e+00|   -3.611250|
|         930|  0.0000e+00|   -3.638338|
|         940|  0.0000e+00|   -3.766996|
|         950|  0.0000e+00|   -3.644875|
+-----------------------------------------------------------------------+
|        File Writing Summary       |              Filename             |
+-----------------------------------------------------------------------+
|SU2 binary restart                 |restart_flow_databladeVALIDATION_Blade_18.dat|
|                                   |                     (10324.3 MB/s)|
|Paraview                           |volume_flow_databladeVALIDATION_Blade_18.vtu|
|                                   |                     (1033.67 MB/s)|
|Paraview surface                   |surface_flowdatabladeVALIDATION_Blade_18.vtu|
|                                   |                     (98.6335 MB/s)|
|SU2 ASCII restart                  |restart_flow_databladeVALIDATION_Blade_18.csv|
|                                   |                     (21.5572 MB/s)|
|CSV file                           |surface_flowdatabladeVALIDATION_Blade_18.csv|
|                                   |                     (20.8863 MB/s)|
+-----------------------------------------------------------------------+
+--------------------------------------+
|  Inner_Iter|    Cur_Time|    rms[Rho]|
+--------------------------------------+
|         960|  0.0000e+00|   -3.582227|
|         970|  0.0000e+00|   -3.732594|
|         980|  0.0000e+00|   -3.882204|
|         990|  0.0000e+00|   -3.697379|
|        1000|  0.0000e+00|   -3.730868|
+-----------------------------------------------------------------------+
|        File Writing Summary       |              Filename             |
+-----------------------------------------------------------------------+
|SU2 binary restart                 |restart_flow_databladeVALIDATION_Blade_18.dat|
|                                   |                     (12189.9 MB/s)|
|Paraview                           |volume_flow_databladeVALIDATION_Blade_18.vtu|
|                                   |                     (997.471 MB/s)|
|Paraview surface                   |surface_flowdatabladeVALIDATION_Blade_18.vtu|
|                                   |                     (99.0508 MB/s)|
|SU2 ASCII restart                  |restart_flow_databladeVALIDATION_Blade_18.csv|
|                                   |                     (21.7751 MB/s)|
|CSV file                           |surface_flowdatabladeVALIDATION_Blade_18.csv|
|                                   |                     (21.1366 MB/s)|
+-----------------------------------------------------------------------+
+--------------------------------------+
|  Inner_Iter|    Cur_Time|    rms[Rho]|
+--------------------------------------+
|        1010|  0.0000e+00|   -3.887800|
|        1020|  0.0000e+00|   -3.909498|
|        1030|  0.0000e+00|   -3.800682|
|        1040|  0.0000e+00|   -3.827491|
|        1050|  0.0000e+00|   -3.980693|
+-----------------------------------------------------------------------+
|        File Writing Summary       |              Filename             |
+-----------------------------------------------------------------------+
|SU2 binary restart                 |restart_flow_databladeVALIDATION_Blade_18.dat|
|                                   |                     (13159.5 MB/s)|
|Paraview                           |volume_flow_databladeVALIDATION_Blade_18.vtu|
|                                   |                      (1140.1 MB/s)|
|Paraview surface                   |surface_flowdatabladeVALIDATION_Blade_18.vtu|
|                                   |                     (78.3917 MB/s)|
|SU2 ASCII restart                  |restart_flow_databladeVALIDATION_Blade_18.csv|
|                                   |                     (22.0378 MB/s)|
|CSV file                           |surface_flowdatabladeVALIDATION_Blade_18.csv|
|                                   |                     (21.2895 MB/s)|
+-----------------------------------------------------------------------+
+--------------------------------------+
|  Inner_Iter|    Cur_Time|    rms[Rho]|
+--------------------------------------+
|        1060|  0.0000e+00|   -3.807648|
|        1070|  0.0000e+00|   -3.969868|
|        1080|  0.0000e+00|   -3.827182|
|        1090|  0.0000e+00|   -3.904565|
|        1100|  0.0000e+00|   -4.050722|
+-----------------------------------------------------------------------+
|        File Writing Summary       |              Filename             |
+-----------------------------------------------------------------------+
|SU2 binary restart                 |restart_flow_databladeVALIDATION_Blade_18.dat|
|                                   |                       (11643 MB/s)|
|Paraview                           |volume_flow_databladeVALIDATION_Blade_18.vtu|
|                                   |                     (954.952 MB/s)|
|Paraview surface                   |surface_flowdatabladeVALIDATION_Blade_18.vtu|
|                                   |                     (71.6073 MB/s)|
|SU2 ASCII restart                  |restart_flow_databladeVALIDATION_Blade_18.csv|
|                                   |                     (21.4443 MB/s)|
|CSV file                           |surface_flowdatabladeVALIDATION_Blade_18.csv|
|                                   |                     (21.6635 MB/s)|
+-----------------------------------------------------------------------+
+--------------------------------------+
|  Inner_Iter|    Cur_Time|    rms[Rho]|
+--------------------------------------+
|        1110|  0.0000e+00|   -3.932852|
|        1120|  0.0000e+00|   -3.789869|
|        1130|  0.0000e+00|   -3.959572|
|        1140|  0.0000e+00|   -4.060559|
|        1150|  0.0000e+00|   -3.897176|
+-----------------------------------------------------------------------+
|        File Writing Summary       |              Filename             |
+-----------------------------------------------------------------------+
|SU2 binary restart                 |restart_flow_databladeVALIDATION_Blade_18.dat|
|                                   |                     (10436.4 MB/s)|
|Paraview                           |volume_flow_databladeVALIDATION_Blade_18.vtu|
|                                   |                     (248.823 MB/s)|
|Paraview surface                   |surface_flowdatabladeVALIDATION_Blade_18.vtu|
|                                   |                      (98.646 MB/s)|
|SU2 ASCII restart                  |restart_flow_databladeVALIDATION_Blade_18.csv|
|                                   |                     (20.8314 MB/s)|
|CSV file                           |surface_flowdatabladeVALIDATION_Blade_18.csv|
|                                   |                      (20.494 MB/s)|
+-----------------------------------------------------------------------+
+--------------------------------------+
|  Inner_Iter|    Cur_Time|    rms[Rho]|
+--------------------------------------+
|        1160|  0.0000e+00|   -3.862024|
|        1170|  0.0000e+00|   -3.893084|
|        1180|  0.0000e+00|   -3.930361|
|        1190|  0.0000e+00|   -4.093727|
|        1200|  0.0000e+00|   -4.029018|
+-----------------------------------------------------------------------+
|        File Writing Summary       |              Filename             |
+-----------------------------------------------------------------------+
|SU2 binary restart                 |restart_flow_databladeVALIDATION_Blade_18.dat|
|                                   |                     (12689.7 MB/s)|
|Paraview                           |volume_flow_databladeVALIDATION_Blade_18.vtu|
|                                   |                     (1099.71 MB/s)|
|Paraview surface                   |surface_flowdatabladeVALIDATION_Blade_18.vtu|
|                                   |                      (100.47 MB/s)|
|SU2 ASCII restart                  |restart_flow_databladeVALIDATION_Blade_18.csv|
|                                   |                     (21.3826 MB/s)|
|CSV file                           |surface_flowdatabladeVALIDATION_Blade_18.csv|
|                                   |                     (21.9768 MB/s)|
+-----------------------------------------------------------------------+
+--------------------------------------+
|  Inner_Iter|    Cur_Time|    rms[Rho]|
+--------------------------------------+
|        1210|  0.0000e+00|   -3.834851|
|        1220|  0.0000e+00|   -3.986764|
|        1230|  0.0000e+00|   -4.142123|
|        1240|  0.0000e+00|   -3.887971|
|        1250|  0.0000e+00|   -3.876936|
+-----------------------------------------------------------------------+
|        File Writing Summary       |              Filename             |
+-----------------------------------------------------------------------+
|SU2 binary restart                 |restart_flow_databladeVALIDATION_Blade_18.dat|
|                                   |                     (11027.8 MB/s)|
|Paraview                           |volume_flow_databladeVALIDATION_Blade_18.vtu|
|                                   |                     (942.602 MB/s)|
|Paraview surface                   |surface_flowdatabladeVALIDATION_Blade_18.vtu|
|                                   |                     (83.3058 MB/s)|
|SU2 ASCII restart                  |restart_flow_databladeVALIDATION_Blade_18.csv|
|                                   |                     (21.2623 MB/s)|
|CSV file                           |surface_flowdatabladeVALIDATION_Blade_18.csv|
|                                   |                     (19.6172 MB/s)|
+-----------------------------------------------------------------------+
+--------------------------------------+
|  Inner_Iter|    Cur_Time|    rms[Rho]|
+--------------------------------------+
|        1260|  0.0000e+00|   -4.102474|
|        1270|  0.0000e+00|   -3.864447|
|        1280|  0.0000e+00|   -3.934032|
|        1290|  0.0000e+00|   -4.178187|
|        1300|  0.0000e+00|   -3.886885|
+-----------------------------------------------------------------------+
|        File Writing Summary       |              Filename             |
+-----------------------------------------------------------------------+
|SU2 binary restart                 |restart_flow_databladeVALIDATION_Blade_18.dat|
|                                   |                     (7275.56 MB/s)|
|Paraview                           |volume_flow_databladeVALIDATION_Blade_18.vtu|
|                                   |                     (884.872 MB/s)|
|Paraview surface                   |surface_flowdatabladeVALIDATION_Blade_18.vtu|
|                                   |                     (61.8005 MB/s)|
|SU2 ASCII restart                  |restart_flow_databladeVALIDATION_Blade_18.csv|
|                                   |                     (21.2649 MB/s)|
|CSV file                           |surface_flowdatabladeVALIDATION_Blade_18.csv|
|                                   |                     (19.4612 MB/s)|
+-----------------------------------------------------------------------+
+--------------------------------------+
|  Inner_Iter|    Cur_Time|    rms[Rho]|
+--------------------------------------+
|        1310|  0.0000e+00|   -3.945905|
|        1320|  0.0000e+00|   -4.203675|
|        1330|  0.0000e+00|   -4.155239|
|        1340|  0.0000e+00|   -4.057666|
|        1350|  0.0000e+00|   -4.116648|
+-----------------------------------------------------------------------+
|        File Writing Summary       |              Filename             |
+-----------------------------------------------------------------------+
|SU2 binary restart                 |restart_flow_databladeVALIDATION_Blade_18.dat|
|                                   |                     (12249.4 MB/s)|
|Paraview                           |volume_flow_databladeVALIDATION_Blade_18.vtu|
|                                   |                     (977.821 MB/s)|
|Paraview surface                   |surface_flowdatabladeVALIDATION_Blade_18.vtu|
|                                   |                     (83.8818 MB/s)|
|SU2 ASCII restart                  |restart_flow_databladeVALIDATION_Blade_18.csv|
|                                   |                     (21.7876 MB/s)|
|CSV file                           |surface_flowdatabladeVALIDATION_Blade_18.csv|
|                                   |                     (20.0618 MB/s)|
+-----------------------------------------------------------------------+
+--------------------------------------+
|  Inner_Iter|    Cur_Time|    rms[Rho]|
+--------------------------------------+
|        1360|  0.0000e+00|   -4.260915|
|        1370|  0.0000e+00|   -4.114987|
|        1380|  0.0000e+00|   -4.153714|
|        1390|  0.0000e+00|   -4.462238|
|        1400|  0.0000e+00|   -4.299783|
+-----------------------------------------------------------------------+
|        File Writing Summary       |              Filename             |
+-----------------------------------------------------------------------+
|SU2 binary restart                 |restart_flow_databladeVALIDATION_Blade_18.dat|
|                                   |                      (9859.4 MB/s)|
|Paraview                           |volume_flow_databladeVALIDATION_Blade_18.vtu|
|                                   |                     (1018.45 MB/s)|
|Paraview surface                   |surface_flowdatabladeVALIDATION_Blade_18.vtu|
|                                   |                     (80.3417 MB/s)|
|SU2 ASCII restart                  |restart_flow_databladeVALIDATION_Blade_18.csv|
|                                   |                     (20.7252 MB/s)|
|CSV file                           |surface_flowdatabladeVALIDATION_Blade_18.csv|
|                                   |                     (20.4527 MB/s)|
+-----------------------------------------------------------------------+
+--------------------------------------+
|  Inner_Iter|    Cur_Time|    rms[Rho]|
+--------------------------------------+
|        1410|  0.0000e+00|   -4.308582|
|        1420|  0.0000e+00|   -4.505675|
|        1430|  0.0000e+00|   -4.489340|
|        1440|  0.0000e+00|   -4.338856|
|        1450|  0.0000e+00|   -4.434184|
+-----------------------------------------------------------------------+
|        File Writing Summary       |              Filename             |
+-----------------------------------------------------------------------+
|SU2 binary restart                 |restart_flow_databladeVALIDATION_Blade_18.dat|
|                                   |                     (9759.89 MB/s)|
|Paraview                           |volume_flow_databladeVALIDATION_Blade_18.vtu|
|                                   |                     (988.569 MB/s)|
|Paraview surface                   |surface_flowdatabladeVALIDATION_Blade_18.vtu|
|                                   |                     (95.8752 MB/s)|
|SU2 ASCII restart                  |restart_flow_databladeVALIDATION_Blade_18.csv|
|                                   |                     (20.2674 MB/s)|
|CSV file                           |surface_flowdatabladeVALIDATION_Blade_18.csv|
|                                   |                      (20.348 MB/s)|
+-----------------------------------------------------------------------+
+--------------------------------------+
|  Inner_Iter|    Cur_Time|    rms[Rho]|
+--------------------------------------+
|        1460|  0.0000e+00|   -4.560461|
|        1470|  0.0000e+00|   -4.415895|
|        1480|  0.0000e+00|   -4.738343|
|        1490|  0.0000e+00|   -4.557755|
|        1500|  0.0000e+00|   -4.690005|
+-----------------------------------------------------------------------+
|        File Writing Summary       |              Filename             |
+-----------------------------------------------------------------------+
|SU2 binary restart                 |restart_flow_databladeVALIDATION_Blade_18.dat|
|                                   |                     (10409.9 MB/s)|
|Paraview                           |volume_flow_databladeVALIDATION_Blade_18.vtu|
|                                   |                     (866.697 MB/s)|
|Paraview surface                   |surface_flowdatabladeVALIDATION_Blade_18.vtu|
|                                   |                     (119.267 MB/s)|
|SU2 ASCII restart                  |restart_flow_databladeVALIDATION_Blade_18.csv|
|                                   |                     (21.2921 MB/s)|
|CSV file                           |surface_flowdatabladeVALIDATION_Blade_18.csv|
|                                   |                     (20.9646 MB/s)|
+-----------------------------------------------------------------------+
+--------------------------------------+
|  Inner_Iter|    Cur_Time|    rms[Rho]|
+--------------------------------------+
|        1510|  0.0000e+00|   -4.767803|
|        1520|  0.0000e+00|   -4.637401|
|        1530|  0.0000e+00|   -4.469897|
|        1540|  0.0000e+00|   -4.628249|
|        1550|  0.0000e+00|   -4.649249|
+-----------------------------------------------------------------------+
|        File Writing Summary       |              Filename             |
+-----------------------------------------------------------------------+
|SU2 binary restart                 |restart_flow_databladeVALIDATION_Blade_18.dat|
|                                   |                     (10682.7 MB/s)|
|Paraview                           |volume_flow_databladeVALIDATION_Blade_18.vtu|
|                                   |                     (1012.17 MB/s)|
|Paraview surface                   |surface_flowdatabladeVALIDATION_Blade_18.vtu|
|                                   |                     (98.5754 MB/s)|
|SU2 ASCII restart                  |restart_flow_databladeVALIDATION_Blade_18.csv|
|                                   |                     (21.1901 MB/s)|
|CSV file                           |surface_flowdatabladeVALIDATION_Blade_18.csv|
|                                   |                     (20.4358 MB/s)|
+-----------------------------------------------------------------------+
+--------------------------------------+
|  Inner_Iter|    Cur_Time|    rms[Rho]|
+--------------------------------------+
|        1560|  0.0000e+00|   -4.548675|
|        1570|  0.0000e+00|   -4.579001|
|        1580|  0.0000e+00|   -4.806510|
|        1590|  0.0000e+00|   -4.795457|
|        1600|  0.0000e+00|   -4.687596|
+-----------------------------------------------------------------------+
|        File Writing Summary       |              Filename             |
+-----------------------------------------------------------------------+
|SU2 binary restart                 |restart_flow_databladeVALIDATION_Blade_18.dat|
|                                   |                       (11208 MB/s)|
|Paraview                           |volume_flow_databladeVALIDATION_Blade_18.vtu|
|                                   |                     (780.605 MB/s)|
|Paraview surface                   |surface_flowdatabladeVALIDATION_Blade_18.vtu|
|                                   |                     (73.3916 MB/s)|
|SU2 ASCII restart                  |restart_flow_databladeVALIDATION_Blade_18.csv|
|                                   |                     (20.6835 MB/s)|
|CSV file                           |surface_flowdatabladeVALIDATION_Blade_18.csv|
|                                   |                     (18.6857 MB/s)|
+-----------------------------------------------------------------------+
+--------------------------------------+
|  Inner_Iter|    Cur_Time|    rms[Rho]|
+--------------------------------------+
|        1610|  0.0000e+00|   -4.832749|
|        1620|  0.0000e+00|   -4.937321|
|        1630|  0.0000e+00|   -4.778353|
|        1640|  0.0000e+00|   -4.770852|
|        1650|  0.0000e+00|   -4.898517|
+-----------------------------------------------------------------------+
|        File Writing Summary       |              Filename             |
+-----------------------------------------------------------------------+
|SU2 binary restart                 |restart_flow_databladeVALIDATION_Blade_18.dat|
|                                   |                     (12056.8 MB/s)|
|Paraview                           |volume_flow_databladeVALIDATION_Blade_18.vtu|
|                                   |                      (846.61 MB/s)|
|Paraview surface                   |surface_flowdatabladeVALIDATION_Blade_18.vtu|
|                                   |                     (25.5523 MB/s)|
|SU2 ASCII restart                  |restart_flow_databladeVALIDATION_Blade_18.csv|
|                                   |                     (19.8977 MB/s)|
|CSV file                           |surface_flowdatabladeVALIDATION_Blade_18.csv|
|                                   |                     (17.1648 MB/s)|
+-----------------------------------------------------------------------+
+--------------------------------------+
|  Inner_Iter|    Cur_Time|    rms[Rho]|
+--------------------------------------+
|        1660|  0.0000e+00|   -4.819093|
|        1670|  0.0000e+00|   -4.642346|
|        1680|  0.0000e+00|   -4.931540|
|        1690|  0.0000e+00|   -4.864375|
|        1700|  0.0000e+00|   -4.776857|
+-----------------------------------------------------------------------+
|        File Writing Summary       |              Filename             |
+-----------------------------------------------------------------------+
|SU2 binary restart                 |restart_flow_databladeVALIDATION_Blade_18.dat|
|                                   |                     (10216.5 MB/s)|
|Paraview                           |volume_flow_databladeVALIDATION_Blade_18.vtu|
|                                   |                     (780.152 MB/s)|
|Paraview surface                   |surface_flowdatabladeVALIDATION_Blade_18.vtu|
|                                   |                     (91.0723 MB/s)|
|SU2 ASCII restart                  |restart_flow_databladeVALIDATION_Blade_18.csv|
|                                   |                     (21.3055 MB/s)|
|CSV file                           |surface_flowdatabladeVALIDATION_Blade_18.csv|
|                                   |                     (20.4704 MB/s)|
+-----------------------------------------------------------------------+
+--------------------------------------+
|  Inner_Iter|    Cur_Time|    rms[Rho]|
+--------------------------------------+
|        1710|  0.0000e+00|   -4.847609|
|        1720|  0.0000e+00|   -4.824344|
|        1730|  0.0000e+00|   -4.942850|
|        1740|  0.0000e+00|   -4.927639|
|        1750|  0.0000e+00|   -4.734645|
+-----------------------------------------------------------------------+
|        File Writing Summary       |              Filename             |
+-----------------------------------------------------------------------+
|SU2 binary restart                 |restart_flow_databladeVALIDATION_Blade_18.dat|
|                                   |                     (10761.7 MB/s)|
|Paraview                           |volume_flow_databladeVALIDATION_Blade_18.vtu|
|                                   |                     (940.413 MB/s)|
|Paraview surface                   |surface_flowdatabladeVALIDATION_Blade_18.vtu|
|                                   |                      (81.633 MB/s)|
|SU2 ASCII restart                  |restart_flow_databladeVALIDATION_Blade_18.csv|
|                                   |                     (20.8482 MB/s)|
|CSV file                           |surface_flowdatabladeVALIDATION_Blade_18.csv|
|                                   |                     (19.2753 MB/s)|
+-----------------------------------------------------------------------+
+--------------------------------------+
|  Inner_Iter|    Cur_Time|    rms[Rho]|
+--------------------------------------+
|        1760|  0.0000e+00|   -4.846877|
|        1770|  0.0000e+00|   -4.932889|
|        1780|  0.0000e+00|   -4.884941|
|        1790|  0.0000e+00|   -4.791711|
|        1800|  0.0000e+00|   -5.077987|
+-----------------------------------------------------------------------+
|        File Writing Summary       |              Filename             |
+-----------------------------------------------------------------------+
|SU2 binary restart                 |restart_flow_databladeVALIDATION_Blade_18.dat|
|                                   |                     (12690.7 MB/s)|
|Paraview                           |volume_flow_databladeVALIDATION_Blade_18.vtu|
|                                   |                      (981.42 MB/s)|
|Paraview surface                   |surface_flowdatabladeVALIDATION_Blade_18.vtu|
|                                   |                     (87.2284 MB/s)|
|SU2 ASCII restart                  |restart_flow_databladeVALIDATION_Blade_18.csv|
|                                   |                     (20.7044 MB/s)|
|CSV file                           |surface_flowdatabladeVALIDATION_Blade_18.csv|
|                                   |                     (20.5614 MB/s)|
+-----------------------------------------------------------------------+
+--------------------------------------+
|  Inner_Iter|    Cur_Time|    rms[Rho]|
+--------------------------------------+
|        1810|  0.0000e+00|   -4.975555|
|        1820|  0.0000e+00|   -4.990683|
|        1830|  0.0000e+00|   -5.209450|
|        1840|  0.0000e+00|   -5.253454|
|        1850|  0.0000e+00|   -5.010537|
+-----------------------------------------------------------------------+
|        File Writing Summary       |              Filename             |
+-----------------------------------------------------------------------+
|SU2 binary restart                 |restart_flow_databladeVALIDATION_Blade_18.dat|
|                                   |                     (11775.1 MB/s)|
|Paraview                           |volume_flow_databladeVALIDATION_Blade_18.vtu|
|                                   |                      (976.57 MB/s)|
|Paraview surface                   |surface_flowdatabladeVALIDATION_Blade_18.vtu|
|                                   |                     (84.4566 MB/s)|
|SU2 ASCII restart                  |restart_flow_databladeVALIDATION_Blade_18.csv|
|                                   |                      (21.247 MB/s)|
|CSV file                           |surface_flowdatabladeVALIDATION_Blade_18.csv|
|                                   |                     (19.9801 MB/s)|
+-----------------------------------------------------------------------+
+--------------------------------------+
|  Inner_Iter|    Cur_Time|    rms[Rho]|
+--------------------------------------+
|        1860|  0.0000e+00|   -4.964823|
|        1870|  0.0000e+00|   -5.139878|
|        1880|  0.0000e+00|   -5.085186|
|        1890|  0.0000e+00|   -4.881419|
|        1900|  0.0000e+00|   -5.097258|
+-----------------------------------------------------------------------+
|        File Writing Summary       |              Filename             |
+-----------------------------------------------------------------------+
|SU2 binary restart                 |restart_flow_databladeVALIDATION_Blade_18.dat|
|                                   |                     (8214.95 MB/s)|
|Paraview                           |volume_flow_databladeVALIDATION_Blade_18.vtu|
|                                   |                     (964.867 MB/s)|
|Paraview surface                   |surface_flowdatabladeVALIDATION_Blade_18.vtu|
|                                   |                     (95.6012 MB/s)|
|SU2 ASCII restart                  |restart_flow_databladeVALIDATION_Blade_18.csv|
|                                   |                     (21.5661 MB/s)|
|CSV file                           |surface_flowdatabladeVALIDATION_Blade_18.csv|
|                                   |                     (18.5671 MB/s)|
+-----------------------------------------------------------------------+
+--------------------------------------+
|  Inner_Iter|    Cur_Time|    rms[Rho]|
+--------------------------------------+
|        1910|  0.0000e+00|   -5.010108|
|        1920|  0.0000e+00|   -5.073573|
|        1930|  0.0000e+00|   -5.050918|
|        1940|  0.0000e+00|   -5.014605|
|        1950|  0.0000e+00|   -5.018515|
+-----------------------------------------------------------------------+
|        File Writing Summary       |              Filename             |
+-----------------------------------------------------------------------+
|SU2 binary restart                 |restart_flow_databladeVALIDATION_Blade_18.dat|
|                                   |                       (12376 MB/s)|
|Paraview                           |volume_flow_databladeVALIDATION_Blade_18.vtu|
|                                   |                     (681.437 MB/s)|
|Paraview surface                   |surface_flowdatabladeVALIDATION_Blade_18.vtu|
|                                   |                     (47.5299 MB/s)|
|SU2 ASCII restart                  |restart_flow_databladeVALIDATION_Blade_18.csv|
|                                   |                     (21.2579 MB/s)|
|CSV file                           |surface_flowdatabladeVALIDATION_Blade_18.csv|
|                                   |                      (18.216 MB/s)|
+-----------------------------------------------------------------------+
+--------------------------------------+
|  Inner_Iter|    Cur_Time|    rms[Rho]|
+--------------------------------------+
|        1960|  0.0000e+00|   -5.085886|
|        1970|  0.0000e+00|   -5.213867|
|        1980|  0.0000e+00|   -5.328410|
|        1990|  0.0000e+00|   -5.598683|
|        2000|  0.0000e+00|   -5.346787|
+-----------------------------------------------------------------------+
|        File Writing Summary       |              Filename             |
+-----------------------------------------------------------------------+
|SU2 binary restart                 |restart_flow_databladeVALIDATION_Blade_18.dat|
|                                   |                     (11424.3 MB/s)|
|Paraview                           |volume_flow_databladeVALIDATION_Blade_18.vtu|
|                                   |                     (917.025 MB/s)|
|Paraview surface                   |surface_flowdatabladeVALIDATION_Blade_18.vtu|
|                                   |                     (91.1645 MB/s)|
|SU2 ASCII restart                  |restart_flow_databladeVALIDATION_Blade_18.csv|
|                                   |                     (20.3932 MB/s)|
|CSV file                           |surface_flowdatabladeVALIDATION_Blade_18.csv|
|                                   |                     (19.7978 MB/s)|
+-----------------------------------------------------------------------+
+--------------------------------------+
|  Inner_Iter|    Cur_Time|    rms[Rho]|
+--------------------------------------+
|        2010|  0.0000e+00|   -5.189533|
|        2020|  0.0000e+00|   -5.364344|
|        2030|  0.0000e+00|   -5.364851|
|        2040|  0.0000e+00|   -5.204210|
|        2050|  0.0000e+00|   -5.137796|
+-----------------------------------------------------------------------+
|        File Writing Summary       |              Filename             |
+-----------------------------------------------------------------------+
|SU2 binary restart                 |restart_flow_databladeVALIDATION_Blade_18.dat|
|                                   |                     (1560.44 MB/s)|
|Paraview                           |volume_flow_databladeVALIDATION_Blade_18.vtu|
|                                   |                     (1006.94 MB/s)|
|Paraview surface                   |surface_flowdatabladeVALIDATION_Blade_18.vtu|
|                                   |                      (93.163 MB/s)|
|SU2 ASCII restart                  |restart_flow_databladeVALIDATION_Blade_18.csv|
|                                   |                     (21.1625 MB/s)|
|CSV file                           |surface_flowdatabladeVALIDATION_Blade_18.csv|
|                                   |                     (20.5314 MB/s)|
+-----------------------------------------------------------------------+
+--------------------------------------+
|  Inner_Iter|    Cur_Time|    rms[Rho]|
+--------------------------------------+
|        2060|  0.0000e+00|   -5.368175|
|        2070|  0.0000e+00|   -5.245726|
|        2080|  0.0000e+00|   -5.300293|
|        2090|  0.0000e+00|   -5.294066|
|        2100|  0.0000e+00|   -5.289910|
+-----------------------------------------------------------------------+
|        File Writing Summary       |              Filename             |
+-----------------------------------------------------------------------+
|SU2 binary restart                 |restart_flow_databladeVALIDATION_Blade_18.dat|
|                                   |                     (11525.7 MB/s)|
|Paraview                           |volume_flow_databladeVALIDATION_Blade_18.vtu|
|                                   |                     (1010.02 MB/s)|
|Paraview surface                   |surface_flowdatabladeVALIDATION_Blade_18.vtu|
|                                   |                     (89.3078 MB/s)|
|SU2 ASCII restart                  |restart_flow_databladeVALIDATION_Blade_18.csv|
|                                   |                     (21.0169 MB/s)|
|CSV file                           |surface_flowdatabladeVALIDATION_Blade_18.csv|
|                                   |                     (19.1932 MB/s)|
+-----------------------------------------------------------------------+
+--------------------------------------+
|  Inner_Iter|    Cur_Time|    rms[Rho]|
+--------------------------------------+
|        2110|  0.0000e+00|   -5.265990|
|        2120|  0.0000e+00|   -5.295075|
|        2130|  0.0000e+00|   -5.367102|
|        2140|  0.0000e+00|   -5.464754|
|        2150|  0.0000e+00|   -5.586527|
+-----------------------------------------------------------------------+
|        File Writing Summary       |              Filename             |
+-----------------------------------------------------------------------+
|SU2 binary restart                 |restart_flow_databladeVALIDATION_Blade_18.dat|
|                                   |                     (9871.28 MB/s)|
|Paraview                           |volume_flow_databladeVALIDATION_Blade_18.vtu|
|                                   |                     (882.708 MB/s)|
|Paraview surface                   |surface_flowdatabladeVALIDATION_Blade_18.vtu|
|                                   |                     (87.1311 MB/s)|
|SU2 ASCII restart                  |restart_flow_databladeVALIDATION_Blade_18.csv|
|                                   |                     (20.0167 MB/s)|
|CSV file                           |surface_flowdatabladeVALIDATION_Blade_18.csv|
|                                   |                     (18.7791 MB/s)|
+-----------------------------------------------------------------------+
+--------------------------------------+
|  Inner_Iter|    Cur_Time|    rms[Rho]|
+--------------------------------------+
|        2160|  0.0000e+00|   -5.786470|
|        2170|  0.0000e+00|   -5.503867|
|        2180|  0.0000e+00|   -5.459885|
|        2190|  0.0000e+00|   -5.407319|
|        2200|  0.0000e+00|   -5.425857|
+-----------------------------------------------------------------------+
|        File Writing Summary       |              Filename             |
+-----------------------------------------------------------------------+
|SU2 binary restart                 |restart_flow_databladeVALIDATION_Blade_18.dat|
|                                   |                     (11321.2 MB/s)|
|Paraview                           |volume_flow_databladeVALIDATION_Blade_18.vtu|
|                                   |                     (1072.02 MB/s)|
|Paraview surface                   |surface_flowdatabladeVALIDATION_Blade_18.vtu|
|                                   |                     (94.5245 MB/s)|
|SU2 ASCII restart                  |restart_flow_databladeVALIDATION_Blade_18.csv|
|                                   |                     (21.5184 MB/s)|
|CSV file                           |surface_flowdatabladeVALIDATION_Blade_18.csv|
|                                   |                     (20.4374 MB/s)|
+-----------------------------------------------------------------------+
+--------------------------------------+
|  Inner_Iter|    Cur_Time|    rms[Rho]|
+--------------------------------------+
|        2210|  0.0000e+00|   -5.485144|
|        2220|  0.0000e+00|   -5.553047|
|        2230|  0.0000e+00|   -5.560896|
|        2240|  0.0000e+00|   -5.526239|
|        2250|  0.0000e+00|   -5.522067|
+-----------------------------------------------------------------------+
|        File Writing Summary       |              Filename             |
+-----------------------------------------------------------------------+
|SU2 binary restart                 |restart_flow_databladeVALIDATION_Blade_18.dat|
|                                   |                     (12392.7 MB/s)|
|Paraview                           |volume_flow_databladeVALIDATION_Blade_18.vtu|
|                                   |                     (1078.84 MB/s)|
|Paraview surface                   |surface_flowdatabladeVALIDATION_Blade_18.vtu|
|                                   |                      (100.86 MB/s)|
|SU2 ASCII restart                  |restart_flow_databladeVALIDATION_Blade_18.csv|
|                                   |                     (20.9893 MB/s)|
|CSV file                           |surface_flowdatabladeVALIDATION_Blade_18.csv|
|                                   |                     (20.1595 MB/s)|
+-----------------------------------------------------------------------+
+--------------------------------------+
|  Inner_Iter|    Cur_Time|    rms[Rho]|
+--------------------------------------+
|        2260|  0.0000e+00|   -5.576945|
|        2270|  0.0000e+00|   -5.663212|
|        2280|  0.0000e+00|   -5.970013|
|        2290|  0.0000e+00|   -5.739564|
|        2300|  0.0000e+00|   -5.705002|
+-----------------------------------------------------------------------+
|        File Writing Summary       |              Filename             |
+-----------------------------------------------------------------------+
|SU2 binary restart                 |restart_flow_databladeVALIDATION_Blade_18.dat|
|                                   |                     (11305.6 MB/s)|
|Paraview                           |volume_flow_databladeVALIDATION_Blade_18.vtu|
|                                   |                     (759.428 MB/s)|
|Paraview surface                   |surface_flowdatabladeVALIDATION_Blade_18.vtu|
|                                   |                     (51.4143 MB/s)|
|SU2 ASCII restart                  |restart_flow_databladeVALIDATION_Blade_18.csv|
|                                   |                      (20.992 MB/s)|
|CSV file                           |surface_flowdatabladeVALIDATION_Blade_18.csv|
|                                   |                     (18.5546 MB/s)|
+-----------------------------------------------------------------------+
+--------------------------------------+
|  Inner_Iter|    Cur_Time|    rms[Rho]|
+--------------------------------------+
|        2310|  0.0000e+00|   -5.910145|
|        2320|  0.0000e+00|   -5.656205|
|        2330|  0.0000e+00|   -5.784542|
|        2340|  0.0000e+00|   -5.839494|
|        2350|  0.0000e+00|   -5.690610|
+-----------------------------------------------------------------------+
|        File Writing Summary       |              Filename             |
+-----------------------------------------------------------------------+
|SU2 binary restart                 |restart_flow_databladeVALIDATION_Blade_18.dat|
|                                   |                     (11259.8 MB/s)|
|Paraview                           |volume_flow_databladeVALIDATION_Blade_18.vtu|
[...]
|        File Writing Summary       |              Filename             |
+-----------------------------------------------------------------------+
|SU2 binary restart                 |restart_flow_databladeVALIDATION_Blade_18.dat|
|                                   |                     (12155.7 MB/s)|
|Paraview                           |volume_flow_databladeVALIDATION_Blade_18.vtu|
|                                   |                     (929.084 MB/s)|
|Paraview surface                   |surface_flowdatabladeVALIDATION_Blade_18.vtu|
|                                   |                     (97.8504 MB/s)|
|SU2 ASCII restart                  |restart_flow_databladeVALIDATION_Blade_18.csv|
|                                   |                     (21.4003 MB/s)|
|CSV file                           |surface_flowdatabladeVALIDATION_Blade_18.csv|
|                                   |                     (18.4317 MB/s)|
+-----------------------------------------------------------------------+
+--------------------------------------+
|  Inner_Iter|    Cur_Time|    rms[Rho]|
+--------------------------------------+
|        2810|  0.0000e+00|   -6.316113|
|        2820|  0.0000e+00|   -6.379765|
|        2830|  0.0000e+00|   -6.508012|
|        2840|  0.0000e+00|   -6.369111|
|        2850|  0.0000e+00|   -6.212140|
+-----------------------------------------------------------------------+
|        File Writing Summary       |              Filename             |
+-----------------------------------------------------------------------+
|SU2 binary restart                 |restart_flow_databladeVALIDATION_Blade_18.dat|
|                                   |                     (11278.6 MB/s)|
|Paraview                           |volume_flow_databladeVALIDATION_Blade_18.vtu|
|                                   |                      (939.09 MB/s)|
|Paraview surface                   |surface_flowdatabladeVALIDATION_Blade_18.vtu|
|                                   |                     (50.0922 MB/s)|
|SU2 ASCII restart                  |restart_flow_databladeVALIDATION_Blade_18.csv|
|                                   |                     (21.0553 MB/s)|
|CSV file                           |surface_flowdatabladeVALIDATION_Blade_18.csv|
|                                   |                      (19.123 MB/s)|
+-----------------------------------------------------------------------+
+--------------------------------------+
|  Inner_Iter|    Cur_Time|    rms[Rho]|
+--------------------------------------+
|        2860|  0.0000e+00|   -6.387194|
|        2870|  0.0000e+00|   -6.413716|
|        2880|  0.0000e+00|   -6.318246|
|        2890|  0.0000e+00|   -6.546675|
|        2900|  0.0000e+00|   -6.483038|
+-----------------------------------------------------------------------+
|        File Writing Summary       |              Filename             |
+-----------------------------------------------------------------------+
|SU2 binary restart                 |restart_flow_databladeVALIDATION_Blade_18.dat|
|                                   |                     (10209.8 MB/s)|
|Paraview                           |volume_flow_databladeVALIDATION_Blade_18.vtu|
|                                   |                     (1014.88 MB/s)|
|Paraview surface                   |surface_flowdatabladeVALIDATION_Blade_18.vtu|
|                                   |                     (96.1232 MB/s)|
|SU2 ASCII restart                  |restart_flow_databladeVALIDATION_Blade_18.csv|
|                                   |                     (21.1826 MB/s)|
|CSV file                           |surface_flowdatabladeVALIDATION_Blade_18.csv|
|                                   |                     (20.4744 MB/s)|
+-----------------------------------------------------------------------+
+--------------------------------------+
|  Inner_Iter|    Cur_Time|    rms[Rho]|
+--------------------------------------+
|        2910|  0.0000e+00|   -6.438592|
|        2920|  0.0000e+00|   -6.619471|
|        2930|  0.0000e+00|   -6.693498|
|        2940|  0.0000e+00|   -6.464822|
|        2950|  0.0000e+00|   -6.434495|
+-----------------------------------------------------------------------+
|        File Writing Summary       |              Filename             |
+-----------------------------------------------------------------------+
|SU2 binary restart                 |restart_flow_databladeVALIDATION_Blade_18.dat|
|                                   |                     (9611.07 MB/s)|
|Paraview                           |volume_flow_databladeVALIDATION_Blade_18.vtu|
|                                   |                     (1018.01 MB/s)|
|Paraview surface                   |surface_flowdatabladeVALIDATION_Blade_18.vtu|
|                                   |                     (90.7511 MB/s)|
|SU2 ASCII restart                  |restart_flow_databladeVALIDATION_Blade_18.csv|
|                                   |                     (21.0324 MB/s)|
|CSV file                           |surface_flowdatabladeVALIDATION_Blade_18.csv|
|                                   |                     (19.5855 MB/s)|
+-----------------------------------------------------------------------+
+--------------------------------------+
|  Inner_Iter|    Cur_Time|    rms[Rho]|
+--------------------------------------+
|        2960|  0.0000e+00|   -6.563415|
|        2970|  0.0000e+00|   -6.375921|
|        2980|  0.0000e+00|   -6.564280|
|        2990|  0.0000e+00|   -6.599590|
|        3000|  0.0000e+00|   -6.517920|
+-----------------------------------------------------------------------+
|        File Writing Summary       |              Filename             |
+-----------------------------------------------------------------------+
|SU2 binary restart                 |restart_flow_databladeVALIDATION_Blade_18.dat|
|                                   |                     (11987.2 MB/s)|
|Paraview                           |volume_flow_databladeVALIDATION_Blade_18.vtu|
|                                   |                     (1020.41 MB/s)|
|Paraview surface                   |surface_flowdatabladeVALIDATION_Blade_18.vtu|
|                                   |                     (87.6792 MB/s)|
|SU2 ASCII restart                  |restart_flow_databladeVALIDATION_Blade_18.csv|
|                                   |                     (20.9019 MB/s)|
|CSV file                           |surface_flowdatabladeVALIDATION_Blade_18.csv|
|                                   |                     (19.8976 MB/s)|
+-----------------------------------------------------------------------+
+--------------------------------------+
|  Inner_Iter|    Cur_Time|    rms[Rho]|
+--------------------------------------+
|        3010|  0.0000e+00|   -6.518396|
|        3020|  0.0000e+00|   -6.791667|
|        3030|  0.0000e+00|   -6.691555|
|        3040|  0.0000e+00|   -6.562051|
|        3050|  0.0000e+00|   -6.730367|
+-----------------------------------------------------------------------+
|        File Writing Summary       |              Filename             |
+-----------------------------------------------------------------------+
|SU2 binary restart                 |restart_flow_databladeVALIDATION_Blade_18.dat|
|                                   |                      (9081.3 MB/s)|
|Paraview                           |volume_flow_databladeVALIDATION_Blade_18.vtu|
|                                   |                     (976.273 MB/s)|
|Paraview surface                   |surface_flowdatabladeVALIDATION_Blade_18.vtu|
|                                   |                     (99.4546 MB/s)|
|SU2 ASCII restart                  |restart_flow_databladeVALIDATION_Blade_18.csv|
|                                   |                      (20.832 MB/s)|
|CSV file                           |surface_flowdatabladeVALIDATION_Blade_18.csv|
|                                   |                     (19.2166 MB/s)|
+-----------------------------------------------------------------------+
+--------------------------------------+
|  Inner_Iter|    Cur_Time|    rms[Rho]|
+--------------------------------------+
|        3060|  0.0000e+00|   -6.680722|
|        3070|  0.0000e+00|   -6.485737|
|        3080|  0.0000e+00|   -6.504462|
|        3090|  0.0000e+00|   -6.543755|
|        3100|  0.0000e+00|   -6.676682|
+-----------------------------------------------------------------------+
|        File Writing Summary       |              Filename             |
+-----------------------------------------------------------------------+
|SU2 binary restart                 |restart_flow_databladeVALIDATION_Blade_18.dat|
|                                   |                     (11539.4 MB/s)|
|Paraview                           |volume_flow_databladeVALIDATION_Blade_18.vtu|
|                                   |                     (1002.11 MB/s)|
|Paraview surface                   |surface_flowdatabladeVALIDATION_Blade_18.vtu|
|                                   |                     (101.776 MB/s)|
|SU2 ASCII restart                  |restart_flow_databladeVALIDATION_Blade_18.csv|
|                                   |                     (20.8945 MB/s)|
|CSV file                           |surface_flowdatabladeVALIDATION_Blade_18.csv|
|                                   |                     (19.6184 MB/s)|
+-----------------------------------------------------------------------+
+--------------------------------------+
|  Inner_Iter|    Cur_Time|    rms[Rho]|
+--------------------------------------+
|        3110|  0.0000e+00|   -6.662264|
|        3120|  0.0000e+00|   -6.881984|
|        3130|  0.0000e+00|   -6.812782|
|        3140|  0.0000e+00|   -6.671867|
|        3150|  0.0000e+00|   -6.830864|
+-----------------------------------------------------------------------+
|        File Writing Summary       |              Filename             |
+-----------------------------------------------------------------------+
|SU2 binary restart                 |restart_flow_databladeVALIDATION_Blade_18.dat|
|                                   |                     (11923.9 MB/s)|
|Paraview                           |volume_flow_databladeVALIDATION_Blade_18.vtu|
|                                   |                     (907.358 MB/s)|
|Paraview surface                   |surface_flowdatabladeVALIDATION_Blade_18.vtu|
|                                   |                     (72.3284 MB/s)|
|SU2 ASCII restart                  |restart_flow_databladeVALIDATION_Blade_18.csv|
|                                   |                     (20.8293 MB/s)|
|CSV file                           |surface_flowdatabladeVALIDATION_Blade_18.csv|
|                                   |                     (19.6334 MB/s)|
+-----------------------------------------------------------------------+
+--------------------------------------+
|  Inner_Iter|    Cur_Time|    rms[Rho]|
+--------------------------------------+
|        3160|  0.0000e+00|   -6.801042|
|        3170|  0.0000e+00|   -6.607724|
|        3180|  0.0000e+00|   -6.813215|
|        3190|  0.0000e+00|   -6.766512|
|        3200|  0.0000e+00|   -6.629316|
+-----------------------------------------------------------------------+
|        File Writing Summary       |              Filename             |
+-----------------------------------------------------------------------+
|SU2 binary restart                 |restart_flow_databladeVALIDATION_Blade_18.dat|
|                                   |                     (13507.7 MB/s)|
|Paraview                           |volume_flow_databladeVALIDATION_Blade_18.vtu|
|                                   |                     (1022.11 MB/s)|
|Paraview surface                   |surface_flowdatabladeVALIDATION_Blade_18.vtu|
|                                   |                     (93.6212 MB/s)|
|SU2 ASCII restart                  |restart_flow_databladeVALIDATION_Blade_18.csv|
|                                   |                     (20.8716 MB/s)|
|CSV file                           |surface_flowdatabladeVALIDATION_Blade_18.csv|
|                                   |                     (20.7174 MB/s)|
+-----------------------------------------------------------------------+
+--------------------------------------+
|  Inner_Iter|    Cur_Time|    rms[Rho]|
+--------------------------------------+
|        3210|  0.0000e+00|   -6.889947|
|        3220|  0.0000e+00|   -6.884391|
|        3230|  0.0000e+00|   -6.763616|
|        3240|  0.0000e+00|   -6.830605|
|        3250|  0.0000e+00|   -6.946205|
+-----------------------------------------------------------------------+
|        File Writing Summary       |              Filename             |
+-----------------------------------------------------------------------+
|SU2 binary restart                 |restart_flow_databladeVALIDATION_Blade_18.dat|
|                                   |                     (11614.3 MB/s)|
|Paraview                           |volume_flow_databladeVALIDATION_Blade_18.vtu|
|                                   |                     (1047.31 MB/s)|
|Paraview surface                   |surface_flowdatabladeVALIDATION_Blade_18.vtu|
|                                   |                     (82.4348 MB/s)|
|SU2 ASCII restart                  |restart_flow_databladeVALIDATION_Blade_18.csv|
|                                   |                     (21.0577 MB/s)|
|CSV file                           |surface_flowdatabladeVALIDATION_Blade_18.csv|
|                                   |                     (19.3682 MB/s)|
+-----------------------------------------------------------------------+
+--------------------------------------+
|  Inner_Iter|    Cur_Time|    rms[Rho]|
+--------------------------------------+
|        3260|  0.0000e+00|   -6.832092|
|        3270|  0.0000e+00|   -6.721581|
|        3280|  0.0000e+00|   -6.851980|
|        3290|  0.0000e+00|   -6.747558|
|        3300|  0.0000e+00|   -6.770909|
+-----------------------------------------------------------------------+
|        File Writing Summary       |              Filename             |
+-----------------------------------------------------------------------+
|SU2 binary restart                 |restart_flow_databladeVALIDATION_Blade_18.dat|
|                                   |                     (9665.37 MB/s)|
|Paraview                           |volume_flow_databladeVALIDATION_Blade_18.vtu|
|                                   |                     (989.805 MB/s)|
|Paraview surface                   |surface_flowdatabladeVALIDATION_Blade_18.vtu|
|                                   |                     (94.2391 MB/s)|
|SU2 ASCII restart                  |restart_flow_databladeVALIDATION_Blade_18.csv|
|                                   |                     (20.8769 MB/s)|
|CSV file                           |surface_flowdatabladeVALIDATION_Blade_18.csv|
|                                   |                     (19.0494 MB/s)|
+-----------------------------------------------------------------------+
+--------------------------------------+
|  Inner_Iter|    Cur_Time|    rms[Rho]|
+--------------------------------------+
|        3310|  0.0000e+00|   -6.835734|
|        3320|  0.0000e+00|   -6.783264|
|        3330|  0.0000e+00|   -6.801957|
|        3340|  0.0000e+00|   -6.939222|
|        3350|  0.0000e+00|   -6.954410|
+-----------------------------------------------------------------------+
|        File Writing Summary       |              Filename             |
+-----------------------------------------------------------------------+
|SU2 binary restart                 |restart_flow_databladeVALIDATION_Blade_18.dat|
|                                   |                     (11710.4 MB/s)|
|Paraview                           |volume_flow_databladeVALIDATION_Blade_18.vtu|
|                                   |                     (1032.94 MB/s)|
|Paraview surface                   |surface_flowdatabladeVALIDATION_Blade_18.vtu|
|                                   |                     (94.8614 MB/s)|
|SU2 ASCII restart                  |restart_flow_databladeVALIDATION_Blade_18.csv|
|                                   |                     (20.9755 MB/s)|
|CSV file                           |surface_flowdatabladeVALIDATION_Blade_18.csv|
|                                   |                     (18.4041 MB/s)|
+-----------------------------------------------------------------------+
+--------------------------------------+
|  Inner_Iter|    Cur_Time|    rms[Rho]|
+--------------------------------------+
|        3360|  0.0000e+00|   -6.871612|
|        3365|  0.0000e+00|   -7.000361|

----------------------------- Solver Exit -------------------------------
All convergence criteria satisfied.
+-----------------------------------------------------------------------+
|      Convergence Field     |     Value    |   Criterion  |  Converged |
+-----------------------------------------------------------------------+
|                    rms[Rho]|      -7.00036|          < -7|         Yes|
+-----------------------------------------------------------------------+
-------------------------------------------------------------------------
+-----------------------------------------------------------------------+
|        File Writing Summary       |              Filename             |
+-----------------------------------------------------------------------+
|SU2 binary restart                 |restart_flow_databladeVALIDATION_Blade_18.dat|
|                                   |                       (11818 MB/s)|
|Paraview                           |volume_flow_databladeVALIDATION_Blade_18.vtu|
|                                   |                     (1021.84 MB/s)|
|Paraview surface                   |surface_flowdatabladeVALIDATION_Blade_18.vtu|
|                                   |                     (94.0235 MB/s)|
|SU2 ASCII restart                  |restart_flow_databladeVALIDATION_Blade_18.csv|
|                                   |                     (21.1424 MB/s)|
|CSV file                           |surface_flowdatabladeVALIDATION_Blade_18.csv|
|                                   |                     (20.5437 MB/s)|
+-----------------------------------------------------------------------+

--------------------------- Finalizing Solver ---------------------------
Deleted CNumerics container.
Deleted CIntegration container.
Deleted CSolver container.
Deleted CIteration container.
Deleted CInterface container.
Deleted CGeometry container.
Deleted CFreeFormDefBox class.
Deleted CSurfaceMovement class.
Deleted CVolumetricMovement class.
Deleted CConfig container.
Deleted nInst container.
Deleted COutput class.
-------------------------------------------------------------------------


-------------------------- Performance Summary --------------------------
Simulation totals:
   Wall-clock time (hrs):    0.106659 |            Core-hrs:     1.27991
                   Cores:          12 |          DOFs/point:           5
             Points/core:     4910.25 |   Ghost points/core:     134.917
 Ghost/Owned Point Ratio:   0.0274765 | 

Preprocessing phase:
       Preproc. Time (s):    0.447052 |   Preproc. Time (%):    0.116428

Compute phase:
        Compute Time (s):      381.28 |    Compute Time (%):     99.2986
         Iteration count:        3366 |         Avg. s/iter:    0.113274
     Core-s/iter/Mpoints:      22.452 |           Mpoints/s:    0.534474

Output phase:
         Output Time (s):     2.24615 |     Output Time (%):    0.584974
            Output count:           1 |       Avg. s/output:     2.24615
 Restart Aggr. BW (MB/s):      763828 |           MB/s/core:     63652.3
-------------------------------------------------------------------------


------------------------- Exit Success (SU2_CFD) ------------------------

