
-------------------------------------------------------------------------
|    ___ _   _ ___                                                      |
|   / __| | | |_  )   Release 8.0.1 "Harrier"                           |
|   \__ \ |_| |/ /                                                      |
|   |___/\___//___|   Suite (Computational Fluid Dynamics Code)         |
|                                                                       |
-------------------------------------------------------------------------
| SU2 Project Website: https://su2code.github.io                        |
|                                                                       |
| The SU2 Project is maintained by the SU2 Foundation                   |
| (http://su2foundation.org)                                            |
-------------------------------------------------------------------------
| Copyright 2012-2024, SU2 Contributors                                 |
|                                                                       |
| SU2 is free software; you can redistribute it and/or                  |
| modify it under the terms of the GNU Lesser General Public            |
| License as published by the Free Software Foundation; either          |
| version 2.1 of the License, or (at your option) any later version.    |
|                                                                       |
| SU2 is distributed in the hope that it will be useful,                |
| but WITHOUT ANY WARRANTY; without even the implied warranty of        |
| MERCHANTABILITY or FITNESS FOR A PARTICULAR PURPOSE. See the GNU      |
| Lesser General Public License for more details.                       |
|                                                                       |
| You should have received a copy of the GNU Lesser General Public      |
| License along with SU2. If not, see <http://www.gnu.org/licenses/>.   |
-------------------------------------------------------------------------

Parsing config file for zone 0

----------------- Physical Case Definition ( Zone 0 ) -------------------
Compressible RANS equations.
Turbulence model: Spalart-Allmaras-noft2-BCM
Hybrid RANS/LES: No Hybrid RANS/LES
Mach number: 0.5.
Angle of attack (AoA): -40 deg, and angle of sideslip (AoS): 0 deg.
Reynolds number: 600000. Reference length 1.0014.
No restart solution, use the values at infinity (freestream).
Dimensional simulation.
The reference area will be computed using y(2D) or z(3D) projection.
The semi-span will be computed using the max y(3D) value.
The reference length is 1.0014 m.
Reference origin for moment evaluation is (0, 0, 0).
Surface(s) where the force coefficients are evaluated: blade1.

Surface(s) plotted in the output file: blade1.
Surface(s) to be analyzed in detail: inlet, outlet, blade1.
Input mesh file name: cascade2D_databladeVALIDATION_Blade_14.su2

--------------- Space Numerical Integration ( Zone 0 ) ------------------
Jameson-Schmidt-Turkel scheme (2nd order in space) for the flow inviscid terms.
JST viscous coefficients (2nd & 4th): 0.5, 0.02.
The method includes a grid stretching correction (p = 0.3).
Scalar upwind solver for the turbulence model.
First order integration in space.
Average of gradients with correction (viscous flow terms).
Average of gradients with correction (viscous turbulence terms).
Gradient for upwind reconstruction: inverse-distance weighted Least-Squares.
Gradient for viscous and source terms: inverse-distance weighted Least-Squares.

--------------- Time Numerical Integration  ( Zone 0 ) ------------------
Local time stepping (steady state simulation).
Euler implicit method for the flow equations.
FGMRES is used for solving the linear system.
Using a LU-SGS preconditioning.
Convergence criteria of the linear solver: 0.0001.
Max number of linear iterations: 10.
V Multigrid Cycle, with 3 multigrid levels.
Damping factor for the residual restriction: 0.75.
Damping factor for the correction prolongation: 0.75.
CFL adaptation. Factor down: 0.1, factor up: 1.2,
                lower limit: 0.1, upper limit: 100,
                acceptable linear residual: 0.001.
+-------------------------------------------+
|  MG Level| Presmooth|PostSmooth|CorrectSmo|
+-------------------------------------------+
|         0|         1|         0|         1|
|         1|         2|         2|         2|
|         2|         3|         3|         3|
|         3|         3|         0|         0|
+-------------------------------------------+
Courant-Friedrichs-Lewy number:       12
Euler implicit time integration for the turbulence model.

------------------ Convergence Criteria  ( Zone 0 ) ---------------------
Maximum number of solver subiterations: 7000.
Begin convergence monitoring at iteration 500.
Residual minimum value: 1e-7.
Cauchy series min. value: 1e-10.
Number of Cauchy elements: 100.
Begin windowed time average at iteration 0.

-------------------- Output Information ( Zone 0 ) ----------------------
File writing frequency: 
+------------------------------------+
|                     File| Frequency|
+------------------------------------+
|                  RESTART|        50|
|                 PARAVIEW|        50|
|         SURFACE_PARAVIEW|        50|
|                      CSV|        50|
|              SURFACE_CSV|        50|
+------------------------------------+
Writing the convergence history file every 1 inner iterations.
Writing the screen convergence history every 10 inner iterations.
The tabular file format is CSV (.csv).
Convergence history file name: history_databladeVALIDATION_Blade_14.
Forces breakdown file name: forces_breakdown.dat.
Surface file name: surface_flowdatabladeVALIDATION_Blade_14.
Volume file name: volume_flow_databladeVALIDATION_Blade_14.
Restart file name: restart_flow_databladeVALIDATION_Blade_14.dat.

------------- Config File Boundary Information ( Zone 0 ) ---------------
+-----------------------------------------------------------------------+
|                        Marker Type|                        Marker Name|
+-----------------------------------------------------------------------+
|                  Periodic boundary|               symmetricWallsBOTTOM|
|                                   |                  symmetricWallsTOP|
+-----------------------------------------------------------------------+
|                     Inlet boundary|                              inlet|
+-----------------------------------------------------------------------+
|                    Outlet boundary|                             outlet|
+-----------------------------------------------------------------------+
|                     Heat flux wall|                             blade1|
|                                   |                             blade2|
+-----------------------------------------------------------------------+

-------------------- Output Preprocessing ( Zone 0 ) --------------------
  Info: Ignoring the following screen output fields:
  LINSOL_ITER_TRANS, LINSOL_RESIDUAL_TRANS
Screen output fields: INNER_ITER, CUR_TIME, RMS_DENSITY
  Info: Ignoring the following history output groups:
  RMS_TKE, RMS_DISSIPATION
History output group(s): INNER_ITER, WALL_TIME, RMS_DENSITY, RMS_MOMENTUM-X, RMS_ENERGY, LINSOL, CFL_NUMBER, FLOW_COEFF_SURF, AERO_COEFF_SURF
Convergence field(s): RMS_DENSITY
Warning: No (valid) fields chosen for time convergence monitoring. Time convergence monitoring inactive.
Volume output fields: COORDINATES, SOLUTION, PRIMITIVE, RESIDUAL, TIMESTEP, MESH_QUALITY, VORTEX_IDENTIFICATION

------------------- Geometry Preprocessing ( Zone 0 ) -------------------
Two dimensional problem.
57779 grid points before partitioning.
86248 volume elements before partitioning.
5 surface markers.
26 boundary elements in index 0 (Marker = inlet).
329 boundary elements in index 1 (Marker = symmetricWallsBOTTOM).
329 boundary elements in index 2 (Marker = symmetricWallsTOP).
26 boundary elements in index 3 (Marker = outlet).
1144 boundary elements in index 4 (Marker = blade1).
Executing the partitioning functions.
Building the graph adjacency structure.
Calling ParMETIS... graph partitioning complete (1406 edge cuts).
Distributing ParMETIS coloring.
Rebalancing vertices.
Rebalancing volume element connectivity.
Rebalancing markers and surface elements.
59555 vertices including ghost points. 
87644 interior elements including halo cells. 
59832 triangles.
27812 quadrilaterals.
Establishing MPI communication patterns.
Setting point connectivity.
Renumbering points (Reverse Cuthill McKee Ordering).
Recomputing point connectivity.
Setting element connectivity.
Checking the numerical grid orientation.
All volume elements are correctly orientend.
There has been a re-orientation of 935 LINE surface elements.
Identifying edges and vertices.
Setting the control volume structure.
Area of the computational grid: 3.35712.
Searching for the closest normal neighbors to the surfaces.
Storing a mapping from global to local point index.
Compute the surface curvature.
Max K: 130.342. Mean K: 4.11534. Standard deviation K: 14.0299.
Checking for periodicity.
WARNING: Periodicity has been detected. Disabling multigrid. 
Computing mesh quality statistics for the dual control volumes.
+--------------------------------------------------------------+
|           Mesh Quality Metric|        Minimum|        Maximum|
+--------------------------------------------------------------+
|    Orthogonality Angle (deg.)|        46.0808|             90|
|     CV Face Area Aspect Ratio|        1.00011|        300.984|
|           CV Sub-Volume Ratio|              1|        17.3059|
+--------------------------------------------------------------+
Finding max control volume width.
Communicating number of neighbors.
Reference length = 1.02128 m.
Wetted area = 2.9512 m.
Area projection in the x-plane = 0.896399 m, y-plane = 1.02128 m.
Max. coordinate in the x-direction = 1.01342 m, y-direction = 0.578707 m.
Min. coordinate in the x-direction = -0.00787529 m, y-direction = -0.300562 m.
Matching the periodic boundary points for marker pair 1.
 Matched 660 points with a max distance of: 9.00569e-14.
Computing wall distances.

-------------------- Solver Preprocessing ( Zone 0 ) --------------------
Viscous flow: Computing pressure using the ideal gas law
based on the free-stream temperature and a density computed
from the Reynolds number.
Force coefficients computed using free-stream values.

-- Models:
+------------------------------------------------------------------------------+
|          Viscosity Model|        Conductivity Model|              Fluid Model|
+------------------------------------------------------------------------------+
|               SUTHERLAND|          CONSTANT_PRANDTL|                IDEAL_GAS|
+------------------------------------------------------------------------------+
-- Fluid properties:
+------------------------------------------------------------------------------+
|                  Name|    Dim. value|    Ref. value|      Unit|Non-dim. value|
+------------------------------------------------------------------------------+
|        Ref. Viscosity|     1.716e-05|             1|   N.s/m^2|     1.716e-05|
|      Sutherland Temp.|        273.15|             1|         K|        273.15|
|     Sutherland Const.|         110.4|             1|         K|         110.4|
+------------------------------------------------------------------------------+
|        Prandtl (Lam.)|             -|             -|         -|          0.72|
|       Prandtl (Turb.)|             -|             -|         -|           0.9|
+------------------------------------------------------------------------------+
|          Gas Constant|       287.058|             1|  N.m/kg.K|       287.058|
|      Spec. Heat Ratio|             -|             -|         -|           1.4|
+------------------------------------------------------------------------------+
-- Initial and free-stream conditions:
+------------------------------------------------------------------------------+
|                  Name|    Dim. value|    Ref. value|      Unit|Non-dim. value|
+------------------------------------------------------------------------------+
|       Static Pressure|       5486.12|             1|        Pa|       5486.12|
|               Density|     0.0637052|             1|    kg/m^3|     0.0637052|
|           Temperature|           300|             1|         K|           300|
|          Total Energy|        230364|             1|   m^2/s^2|        230364|
|            Velocity-X|       132.994|             1|       m/s|       132.994|
|            Velocity-Y|      -111.596|             1|       m/s|      -111.596|
|    Velocity Magnitude|       173.612|             1|       m/s|       173.612|
+------------------------------------------------------------------------------+
|             Viscosity|   1.84592e-05|             1|   N.s/m^2|   1.84592e-05|
|          Conductivity|             -|             1|   W/m^2.K|             -|
|     Turb. Kin. Energy|       55.3843|             1|   m^2/s^2|       55.3843|
|     Spec. Dissipation|   1.91139e+06|             1|       1/s|   1.91139e+06|
+------------------------------------------------------------------------------+
|           Mach Number|             -|             -|         -|           0.5|
|       Reynolds Number|             -|             -|         -|        600000|
+------------------------------------------------------------------------------+
Initialize Jacobian structure (Navier-Stokes). MG level: 0.
Initialize Jacobian structure (SA model).

------------------- Numerics Preprocessing ( Zone 0 ) -------------------

----------------- Integration Preprocessing ( Zone 0 ) ------------------

------------------- Iteration Preprocessing ( Zone 0 ) ------------------
Euler/Navier-Stokes/RANS fluid iteration.

------------------------------ Begin Solver -----------------------------

Simulation Run using the Single-zone Driver
WARNING: SU2 was not compiled for an AVX-capable architecture. Performance could be better,
         see https://su2code.github.io/docs_v7/Build-SU2-Linux-MacOS/#compiler-optimizations
+--------------------------------------+
|  Inner_Iter|    Cur_Time|    rms[Rho]|
+--------------------------------------+
|           0|  0.0000e+00|   -2.456286|
|          10|  0.0000e+00|   -3.099758|
|          20|  0.0000e+00|   -2.909696|
|          30|  0.0000e+00|   -2.933567|
|          40|  0.0000e+00|   -2.846374|
|          50|  0.0000e+00|   -2.916756|
+-----------------------------------------------------------------------+
|        File Writing Summary       |              Filename             |
+-----------------------------------------------------------------------+
|SU2 binary restart                 |restart_flow_databladeVALIDATION_Blade_14.dat|
|                                   |                     (13855.1 MB/s)|
|Paraview                           |volume_flow_databladeVALIDATION_Blade_14.vtu|
|                                   |                     (1033.35 MB/s)|
|Paraview surface                   |surface_flowdatabladeVALIDATION_Blade_14.vtu|
|                                   |                     (103.802 MB/s)|
|SU2 ASCII restart                  |restart_flow_databladeVALIDATION_Blade_14.csv|
|                                   |                     (21.6012 MB/s)|
|CSV file                           |surface_flowdatabladeVALIDATION_Blade_14.csv|
|                                   |                     (18.6151 MB/s)|
+-----------------------------------------------------------------------+
+--------------------------------------+
|  Inner_Iter|    Cur_Time|    rms[Rho]|
+--------------------------------------+
|          60|  0.0000e+00|   -3.039222|
|          70|  0.0000e+00|   -3.020440|
|          80|  0.0000e+00|   -2.871751|
|          90|  0.0000e+00|   -3.042327|
|         100|  0.0000e+00|   -3.012544|
+-----------------------------------------------------------------------+
|        File Writing Summary       |              Filename             |
+-----------------------------------------------------------------------+
|SU2 binary restart                 |restart_flow_databladeVALIDATION_Blade_14.dat|
|                                   |                     (14253.5 MB/s)|
|Paraview                           |volume_flow_databladeVALIDATION_Blade_14.vtu|
|                                   |                     (1003.51 MB/s)|
|Paraview surface                   |surface_flowdatabladeVALIDATION_Blade_14.vtu|
|                                   |                     (99.8363 MB/s)|
|SU2 ASCII restart                  |restart_flow_databladeVALIDATION_Blade_14.csv|
|                                   |                     (22.3959 MB/s)|
|CSV file                           |surface_flowdatabladeVALIDATION_Blade_14.csv|
|                                   |                     (20.7275 MB/s)|
+-----------------------------------------------------------------------+
+--------------------------------------+
|  Inner_Iter|    Cur_Time|    rms[Rho]|
+--------------------------------------+
|         110|  0.0000e+00|   -2.951993|
|         120|  0.0000e+00|   -2.946768|
|         130|  0.0000e+00|   -3.016683|
|         140|  0.0000e+00|   -3.107210|
|         150|  0.0000e+00|   -3.125179|
+-----------------------------------------------------------------------+
|        File Writing Summary       |              Filename             |
+-----------------------------------------------------------------------+
|SU2 binary restart                 |restart_flow_databladeVALIDATION_Blade_14.dat|
|                                   |                     (12182.4 MB/s)|
|Paraview                           |volume_flow_databladeVALIDATION_Blade_14.vtu|
|                                   |                     (1079.94 MB/s)|
|Paraview surface                   |surface_flowdatabladeVALIDATION_Blade_14.vtu|
|                                   |                     (127.487 MB/s)|
|SU2 ASCII restart                  |restart_flow_databladeVALIDATION_Blade_14.csv|
|                                   |                     (21.3854 MB/s)|
|CSV file                           |surface_flowdatabladeVALIDATION_Blade_14.csv|
|                                   |                     (20.4827 MB/s)|
+-----------------------------------------------------------------------+
+--------------------------------------+
|  Inner_Iter|    Cur_Time|    rms[Rho]|
+--------------------------------------+
|         160|  0.0000e+00|   -3.229481|
|         170|  0.0000e+00|   -3.268172|
|         180|  0.0000e+00|   -3.199697|
|         190|  0.0000e+00|   -3.141375|
|         200|  0.0000e+00|   -3.213390|
+-----------------------------------------------------------------------+
|        File Writing Summary       |              Filename             |
+-----------------------------------------------------------------------+
|SU2 binary restart                 |restart_flow_databladeVALIDATION_Blade_14.dat|
|                                   |                     (9351.89 MB/s)|
|Paraview                           |volume_flow_databladeVALIDATION_Blade_14.vtu|
|                                   |                     (1061.42 MB/s)|
|Paraview surface                   |surface_flowdatabladeVALIDATION_Blade_14.vtu|
|                                   |                     (122.052 MB/s)|
|SU2 ASCII restart                  |restart_flow_databladeVALIDATION_Blade_14.csv|
|                                   |                     (21.7133 MB/s)|
|CSV file                           |surface_flowdatabladeVALIDATION_Blade_14.csv|
|                                   |                     (19.8508 MB/s)|
+-----------------------------------------------------------------------+
+--------------------------------------+
|  Inner_Iter|    Cur_Time|    rms[Rho]|
+--------------------------------------+
|         210|  0.0000e+00|   -3.204426|
|         220|  0.0000e+00|   -3.188980|
|         230|  0.0000e+00|   -3.300815|
|         240|  0.0000e+00|   -3.365820|
|         250|  0.0000e+00|   -3.223453|
+-----------------------------------------------------------------------+
|        File Writing Summary       |              Filename             |
+-----------------------------------------------------------------------+
|SU2 binary restart                 |restart_flow_databladeVALIDATION_Blade_14.dat|
|                                   |                     (11635.5 MB/s)|
|Paraview                           |volume_flow_databladeVALIDATION_Blade_14.vtu|
|                                   |                     (1018.91 MB/s)|
|Paraview surface                   |surface_flowdatabladeVALIDATION_Blade_14.vtu|
|                                   |                     (85.7934 MB/s)|
|SU2 ASCII restart                  |restart_flow_databladeVALIDATION_Blade_14.csv|
|                                   |                      (21.017 MB/s)|
|CSV file                           |surface_flowdatabladeVALIDATION_Blade_14.csv|
|                                   |                     (20.9243 MB/s)|
+-----------------------------------------------------------------------+
+--------------------------------------+
|  Inner_Iter|    Cur_Time|    rms[Rho]|
+--------------------------------------+
|         260|  0.0000e+00|   -3.355032|
|         270|  0.0000e+00|   -3.430547|
|         280|  0.0000e+00|   -3.137289|
|         290|  0.0000e+00|   -3.099832|
|         300|  0.0000e+00|   -3.250193|
+-----------------------------------------------------------------------+
|        File Writing Summary       |              Filename             |
+-----------------------------------------------------------------------+
|SU2 binary restart                 |restart_flow_databladeVALIDATION_Blade_14.dat|
|                                   |                     (9709.96 MB/s)|
|Paraview                           |volume_flow_databladeVALIDATION_Blade_14.vtu|
|                                   |                      (829.75 MB/s)|
|Paraview surface                   |surface_flowdatabladeVALIDATION_Blade_14.vtu|
|                                   |                     (89.8389 MB/s)|
|SU2 ASCII restart                  |restart_flow_databladeVALIDATION_Blade_14.csv|
|                                   |                     (22.2636 MB/s)|
|CSV file                           |surface_flowdatabladeVALIDATION_Blade_14.csv|
|                                   |                     (21.8097 MB/s)|
+-----------------------------------------------------------------------+
+--------------------------------------+
|  Inner_Iter|    Cur_Time|    rms[Rho]|
+--------------------------------------+
|         310|  0.0000e+00|   -3.257012|
|         320|  0.0000e+00|   -3.125524|
|         330|  0.0000e+00|   -3.305103|
|         340|  0.0000e+00|   -3.475439|
|         350|  0.0000e+00|   -3.351523|
+-----------------------------------------------------------------------+
|        File Writing Summary       |              Filename             |
+-----------------------------------------------------------------------+
|SU2 binary restart                 |restart_flow_databladeVALIDATION_Blade_14.dat|
|                                   |                     (13382.7 MB/s)|
|Paraview                           |volume_flow_databladeVALIDATION_Blade_14.vtu|
|                                   |                      (1074.7 MB/s)|
|Paraview surface                   |surface_flowdatabladeVALIDATION_Blade_14.vtu|
|                                   |                     (120.986 MB/s)|
|SU2 ASCII restart                  |restart_flow_databladeVALIDATION_Blade_14.csv|
|                                   |                     (22.0908 MB/s)|
|CSV file                           |surface_flowdatabladeVALIDATION_Blade_14.csv|
|                                   |                     (22.8137 MB/s)|
+-----------------------------------------------------------------------+
+--------------------------------------+
|  Inner_Iter|    Cur_Time|    rms[Rho]|
+--------------------------------------+
|         360|  0.0000e+00|   -3.428167|
|         370|  0.0000e+00|   -3.594808|
|         380|  0.0000e+00|   -3.476498|
|         390|  0.0000e+00|   -3.628452|
|         400|  0.0000e+00|   -3.514697|
+-----------------------------------------------------------------------+
|        File Writing Summary       |              Filename             |
+-----------------------------------------------------------------------+
|SU2 binary restart                 |restart_flow_databladeVALIDATION_Blade_14.dat|
|                                   |                     (10497.8 MB/s)|
|Paraview                           |volume_flow_databladeVALIDATION_Blade_14.vtu|
|                                   |                     (1034.63 MB/s)|
|Paraview surface                   |surface_flowdatabladeVALIDATION_Blade_14.vtu|
|                                   |                     (102.502 MB/s)|
|SU2 ASCII restart                  |restart_flow_databladeVALIDATION_Blade_14.csv|
|                                   |                     (21.7038 MB/s)|
|CSV file                           |surface_flowdatabladeVALIDATION_Blade_14.csv|
|                                   |                     (21.8763 MB/s)|
+-----------------------------------------------------------------------+
+--------------------------------------+
|  Inner_Iter|    Cur_Time|    rms[Rho]|
+--------------------------------------+
|         410|  0.0000e+00|   -3.662491|
|         420|  0.0000e+00|   -3.650638|
|         430|  0.0000e+00|   -3.534008|
|         440|  0.0000e+00|   -3.608360|
|         450|  0.0000e+00|   -3.765461|
+-----------------------------------------------------------------------+
|        File Writing Summary       |              Filename             |
+-----------------------------------------------------------------------+
|SU2 binary restart                 |restart_flow_databladeVALIDATION_Blade_14.dat|
|                                   |                     (12707.6 MB/s)|
|Paraview                           |volume_flow_databladeVALIDATION_Blade_14.vtu|
|                                   |                     (1094.65 MB/s)|
|Paraview surface                   |surface_flowdatabladeVALIDATION_Blade_14.vtu|
|                                   |                      (101.98 MB/s)|
|SU2 ASCII restart                  |restart_flow_databladeVALIDATION_Blade_14.csv|
|                                   |                      (21.736 MB/s)|
|CSV file                           |surface_flowdatabladeVALIDATION_Blade_14.csv|
|                                   |                     (20.0553 MB/s)|
+-----------------------------------------------------------------------+
+--------------------------------------+
|  Inner_Iter|    Cur_Time|    rms[Rho]|
+--------------------------------------+
|         460|  0.0000e+00|   -3.711308|
|         470|  0.0000e+00|   -3.619079|
|         480|  0.0000e+00|   -3.670028|
|         490|  0.0000e+00|   -3.718360|
|         500|  0.0000e+00|   -3.644088|
+-----------------------------------------------------------------------+
|        File Writing Summary       |              Filename             |
+-----------------------------------------------------------------------+
|SU2 binary restart                 |restart_flow_databladeVALIDATION_Blade_14.dat|
|                                   |                     (12454.7 MB/s)|
|Paraview                           |volume_flow_databladeVALIDATION_Blade_14.vtu|
|                                   |                     (1047.29 MB/s)|
|Paraview surface                   |surface_flowdatabladeVALIDATION_Blade_14.vtu|
|                                   |                     (98.9796 MB/s)|
|SU2 ASCII restart                  |restart_flow_databladeVALIDATION_Blade_14.csv|
|                                   |                     (21.8587 MB/s)|
|CSV file                           |surface_flowdatabladeVALIDATION_Blade_14.csv|
|                                   |                     (17.7007 MB/s)|
+-----------------------------------------------------------------------+
+--------------------------------------+
|  Inner_Iter|    Cur_Time|    rms[Rho]|
+--------------------------------------+
|         510|  0.0000e+00|   -3.529164|
|         520|  0.0000e+00|   -3.636829|
|         530|  0.0000e+00|   -3.689918|
|         540|  0.0000e+00|   -3.528944|
|         550|  0.0000e+00|   -3.565488|
+-----------------------------------------------------------------------+
|        File Writing Summary       |              Filename             |
+-----------------------------------------------------------------------+
|SU2 binary restart                 |restart_flow_databladeVALIDATION_Blade_14.dat|
|                                   |                     (12698.1 MB/s)|
|Paraview                           |volume_flow_databladeVALIDATION_Blade_14.vtu|
|                                   |                     (1104.97 MB/s)|
|Paraview surface                   |surface_flowdatabladeVALIDATION_Blade_14.vtu|
|                                   |                     (132.262 MB/s)|
|SU2 ASCII restart                  |restart_flow_databladeVALIDATION_Blade_14.csv|
|                                   |                     (21.8335 MB/s)|
|CSV file                           |surface_flowdatabladeVALIDATION_Blade_14.csv|
|                                   |                      (21.976 MB/s)|
+-----------------------------------------------------------------------+
+--------------------------------------+
|  Inner_Iter|    Cur_Time|    rms[Rho]|
+--------------------------------------+
|         560|  0.0000e+00|   -3.716187|
|         570|  0.0000e+00|   -3.682801|
|         580|  0.0000e+00|   -3.554883|
|         590|  0.0000e+00|   -3.569941|
|         600|  0.0000e+00|   -3.697585|
+-----------------------------------------------------------------------+
|        File Writing Summary       |              Filename             |
+-----------------------------------------------------------------------+
|SU2 binary restart                 |restart_flow_databladeVALIDATION_Blade_14.dat|
|                                   |                     (12367.9 MB/s)|
|Paraview                           |volume_flow_databladeVALIDATION_Blade_14.vtu|
|                                   |                     (1105.78 MB/s)|
|Paraview surface                   |surface_flowdatabladeVALIDATION_Blade_14.vtu|
|                                   |                     (132.569 MB/s)|
|SU2 ASCII restart                  |restart_flow_databladeVALIDATION_Blade_14.csv|
|                                   |                     (21.9162 MB/s)|
|CSV file                           |surface_flowdatabladeVALIDATION_Blade_14.csv|
|                                   |                     (20.3675 MB/s)|
+-----------------------------------------------------------------------+
+--------------------------------------+
|  Inner_Iter|    Cur_Time|    rms[Rho]|
+--------------------------------------+
|         610|  0.0000e+00|   -3.611524|
|         620|  0.0000e+00|   -3.478192|
|         630|  0.0000e+00|   -3.674660|
|         640|  0.0000e+00|   -3.727566|
|         650|  0.0000e+00|   -3.524703|
+-----------------------------------------------------------------------+
|        File Writing Summary       |              Filename             |
+-----------------------------------------------------------------------+
|SU2 binary restart                 |restart_flow_databladeVALIDATION_Blade_14.dat|
|                                   |                     (11465.1 MB/s)|
|Paraview                           |volume_flow_databladeVALIDATION_Blade_14.vtu|
|                                   |                     (1062.46 MB/s)|
|Paraview surface                   |surface_flowdatabladeVALIDATION_Blade_14.vtu|
|                                   |                     (103.271 MB/s)|
|SU2 ASCII restart                  |restart_flow_databladeVALIDATION_Blade_14.csv|
|                                   |                     (21.8992 MB/s)|
|CSV file                           |surface_flowdatabladeVALIDATION_Blade_14.csv|
|                                   |                     (22.0208 MB/s)|
+-----------------------------------------------------------------------+
+--------------------------------------+
|  Inner_Iter|    Cur_Time|    rms[Rho]|
+--------------------------------------+
|         660|  0.0000e+00|   -3.555778|
|         670|  0.0000e+00|   -3.822524|
|         680|  0.0000e+00|   -3.734454|
|         690|  0.0000e+00|   -3.577391|
|         700|  0.0000e+00|   -3.736431|
+-----------------------------------------------------------------------+
|        File Writing Summary       |              Filename             |
+-----------------------------------------------------------------------+
|SU2 binary restart                 |restart_flow_databladeVALIDATION_Blade_14.dat|
|                                   |                     (12542.7 MB/s)|
|Paraview                           |volume_flow_databladeVALIDATION_Blade_14.vtu|
|                                   |                     (1119.56 MB/s)|
|Paraview surface                   |surface_flowdatabladeVALIDATION_Blade_14.vtu|
|                                   |                       (105.8 MB/s)|
|SU2 ASCII restart                  |restart_flow_databladeVALIDATION_Blade_14.csv|
|                                   |                     (21.1299 MB/s)|
|CSV file                           |surface_flowdatabladeVALIDATION_Blade_14.csv|
|                                   |                     (19.6418 MB/s)|
+-----------------------------------------------------------------------+
+--------------------------------------+
|  Inner_Iter|    Cur_Time|    rms[Rho]|
+--------------------------------------+
|         710|  0.0000e+00|   -3.854937|
|         720|  0.0000e+00|   -3.749275|
|         730|  0.0000e+00|   -3.669512|
|         740|  0.0000e+00|   -3.883479|
|         750|  0.0000e+00|   -3.976695|
+-----------------------------------------------------------------------+
|        File Writing Summary       |              Filename             |
+-----------------------------------------------------------------------+
|SU2 binary restart                 |restart_flow_databladeVALIDATION_Blade_14.dat|
|                                   |                     (10623.5 MB/s)|
|Paraview                           |volume_flow_databladeVALIDATION_Blade_14.vtu|
|                                   |                     (1052.45 MB/s)|
|Paraview surface                   |surface_flowdatabladeVALIDATION_Blade_14.vtu|
|                                   |                     (99.5646 MB/s)|
|SU2 ASCII restart                  |restart_flow_databladeVALIDATION_Blade_14.csv|
|                                   |                     (21.7241 MB/s)|
|CSV file                           |surface_flowdatabladeVALIDATION_Blade_14.csv|
|                                   |                     (20.4193 MB/s)|
+-----------------------------------------------------------------------+
+--------------------------------------+
|  Inner_Iter|    Cur_Time|    rms[Rho]|
+--------------------------------------+
|         760|  0.0000e+00|   -3.838033|
|         770|  0.0000e+00|   -3.733189|
|         780|  0.0000e+00|   -3.838729|
|         790|  0.0000e+00|   -3.834829|
|         800|  0.0000e+00|   -3.694073|
+-----------------------------------------------------------------------+
|        File Writing Summary       |              Filename             |
+-----------------------------------------------------------------------+
|SU2 binary restart                 |restart_flow_databladeVALIDATION_Blade_14.dat|
|                                   |                     (12555.1 MB/s)|
|Paraview                           |volume_flow_databladeVALIDATION_Blade_14.vtu|
|                                   |                     (1070.54 MB/s)|
|Paraview surface                   |surface_flowdatabladeVALIDATION_Blade_14.vtu|
|                                   |                      (108.12 MB/s)|
|SU2 ASCII restart                  |restart_flow_databladeVALIDATION_Blade_14.csv|
|                                   |                     (21.7794 MB/s)|
|CSV file                           |surface_flowdatabladeVALIDATION_Blade_14.csv|
|                                   |                     (20.8437 MB/s)|
+-----------------------------------------------------------------------+
+--------------------------------------+
|  Inner_Iter|    Cur_Time|    rms[Rho]|
+--------------------------------------+
|         810|  0.0000e+00|   -3.891640|
|         820|  0.0000e+00|   -3.915229|
|         830|  0.0000e+00|   -3.751584|
|         840|  0.0000e+00|   -3.841263|
|         850|  0.0000e+00|   -3.994666|
+-----------------------------------------------------------------------+
|        File Writing Summary       |              Filename             |
+-----------------------------------------------------------------------+
|SU2 binary restart                 |restart_flow_databladeVALIDATION_Blade_14.dat|
|                                   |                     (12832.6 MB/s)|
|Paraview                           |volume_flow_databladeVALIDATION_Blade_14.vtu|
|                                   |                     (1070.87 MB/s)|
|Paraview surface                   |surface_flowdatabladeVALIDATION_Blade_14.vtu|
|                                   |                     (90.4881 MB/s)|
|SU2 ASCII restart                  |restart_flow_databladeVALIDATION_Blade_14.csv|
|                                   |                     (22.1223 MB/s)|
|CSV file                           |surface_flowdatabladeVALIDATION_Blade_14.csv|
|                                   |                     (20.3283 MB/s)|
+-----------------------------------------------------------------------+
+--------------------------------------+
|  Inner_Iter|    Cur_Time|    rms[Rho]|
+--------------------------------------+
|         860|  0.0000e+00|   -3.831877|
|         870|  0.0000e+00|   -3.781466|
|         880|  0.0000e+00|   -4.043995|
|         890|  0.0000e+00|   -3.995847|
|         900|  0.0000e+00|   -3.788605|
+-----------------------------------------------------------------------+
|        File Writing Summary       |              Filename             |
+-----------------------------------------------------------------------+
|SU2 binary restart                 |restart_flow_databladeVALIDATION_Blade_14.dat|
|                                   |                       (10784 MB/s)|
|Paraview                           |volume_flow_databladeVALIDATION_Blade_14.vtu|
|                                   |                     (1068.53 MB/s)|
|Paraview surface                   |surface_flowdatabladeVALIDATION_Blade_14.vtu|
|                                   |                     (97.0675 MB/s)|
|SU2 ASCII restart                  |restart_flow_databladeVALIDATION_Blade_14.csv|
|                                   |                     (21.8663 MB/s)|
|CSV file                           |surface_flowdatabladeVALIDATION_Blade_14.csv|
|                                   |                     (22.6057 MB/s)|
+-----------------------------------------------------------------------+
+--------------------------------------+
|  Inner_Iter|    Cur_Time|    rms[Rho]|
+--------------------------------------+
|         910|  0.0000e+00|   -3.930118|
|         920|  0.0000e+00|   -4.092626|
|         930|  0.0000e+00|   -3.882460|
|         940|  0.0000e+00|   -3.811173|
|         950|  0.0000e+00|   -4.045853|
+-----------------------------------------------------------------------+
|        File Writing Summary       |              Filename             |
+-----------------------------------------------------------------------+
|SU2 binary restart                 |restart_flow_databladeVALIDATION_Blade_14.dat|
|                                   |                     (12498.5 MB/s)|
|Paraview                           |volume_flow_databladeVALIDATION_Blade_14.vtu|
|                                   |                     (1001.81 MB/s)|
|Paraview surface                   |surface_flowdatabladeVALIDATION_Blade_14.vtu|
|                                   |                     (101.038 MB/s)|
|SU2 ASCII restart                  |restart_flow_databladeVALIDATION_Blade_14.csv|
|                                   |                     (21.6208 MB/s)|
|CSV file                           |surface_flowdatabladeVALIDATION_Blade_14.csv|
|                                   |                     (21.5507 MB/s)|
+-----------------------------------------------------------------------+
+--------------------------------------+
|  Inner_Iter|    Cur_Time|    rms[Rho]|
+--------------------------------------+
|         960|  0.0000e+00|   -4.022885|
|         970|  0.0000e+00|   -3.889984|
|         980|  0.0000e+00|   -3.956106|
|         990|  0.0000e+00|   -4.189063|
|        1000|  0.0000e+00|   -4.077633|
+-----------------------------------------------------------------------+
|        File Writing Summary       |              Filename             |
+-----------------------------------------------------------------------+
|SU2 binary restart                 |restart_flow_databladeVALIDATION_Blade_14.dat|
|                                   |                     (12502.6 MB/s)|
|Paraview                           |volume_flow_databladeVALIDATION_Blade_14.vtu|
|                                   |                     (1083.34 MB/s)|
|Paraview surface                   |surface_flowdatabladeVALIDATION_Blade_14.vtu|
|                                   |                     (101.086 MB/s)|
|SU2 ASCII restart                  |restart_flow_databladeVALIDATION_Blade_14.csv|
|                                   |                     (21.9237 MB/s)|
|CSV file                           |surface_flowdatabladeVALIDATION_Blade_14.csv|
|                                   |                     (21.8975 MB/s)|
+-----------------------------------------------------------------------+
+--------------------------------------+
|  Inner_Iter|    Cur_Time|    rms[Rho]|
+--------------------------------------+
|        1010|  0.0000e+00|   -3.934009|
|        1020|  0.0000e+00|   -4.038922|
|        1030|  0.0000e+00|   -4.328185|
|        1040|  0.0000e+00|   -4.391608|
|        1050|  0.0000e+00|   -4.187410|
+-----------------------------------------------------------------------+
|        File Writing Summary       |              Filename             |
+-----------------------------------------------------------------------+
|SU2 binary restart                 |restart_flow_databladeVALIDATION_Blade_14.dat|
|                                   |                     (12001.4 MB/s)|
|Paraview                           |volume_flow_databladeVALIDATION_Blade_14.vtu|
|                                   |                     (923.784 MB/s)|
|Paraview surface                   |surface_flowdatabladeVALIDATION_Blade_14.vtu|
|                                   |                     (104.204 MB/s)|
|SU2 ASCII restart                  |restart_flow_databladeVALIDATION_Blade_14.csv|
|                                   |                     (21.2111 MB/s)|
|CSV file                           |surface_flowdatabladeVALIDATION_Blade_14.csv|
|                                   |                     (22.7101 MB/s)|
+-----------------------------------------------------------------------+
+--------------------------------------+
|  Inner_Iter|    Cur_Time|    rms[Rho]|
+--------------------------------------+
|        1060|  0.0000e+00|   -4.404752|
|        1070|  0.0000e+00|   -4.502330|
|        1080|  0.0000e+00|   -4.264455|
|        1090|  0.0000e+00|   -4.329500|
|        1100|  0.0000e+00|   -4.567942|
+-----------------------------------------------------------------------+
|        File Writing Summary       |              Filename             |
+-----------------------------------------------------------------------+
|SU2 binary restart                 |restart_flow_databladeVALIDATION_Blade_14.dat|
|                                   |                     (10662.8 MB/s)|
|Paraview                           |volume_flow_databladeVALIDATION_Blade_14.vtu|
|                                   |                     (1099.76 MB/s)|
|Paraview surface                   |surface_flowdatabladeVALIDATION_Blade_14.vtu|
|                                   |                     (98.4345 MB/s)|
|SU2 ASCII restart                  |restart_flow_databladeVALIDATION_Blade_14.csv|
|                                   |                     (21.8448 MB/s)|
|CSV file                           |surface_flowdatabladeVALIDATION_Blade_14.csv|
|                                   |                     (22.7762 MB/s)|
+-----------------------------------------------------------------------+
+--------------------------------------+
|  Inner_Iter|    Cur_Time|    rms[Rho]|
+--------------------------------------+
|        1110|  0.0000e+00|   -4.400379|
|        1120|  0.0000e+00|   -4.379042|
|        1130|  0.0000e+00|   -4.547175|
|        1140|  0.0000e+00|   -4.493741|
|        1150|  0.0000e+00|   -4.625418|
+-----------------------------------------------------------------------+
|        File Writing Summary       |              Filename             |
+-----------------------------------------------------------------------+
|SU2 binary restart                 |restart_flow_databladeVALIDATION_Blade_14.dat|
|                                   |                     (14348.7 MB/s)|
|Paraview                           |volume_flow_databladeVALIDATION_Blade_14.vtu|
|                                   |                     (1056.57 MB/s)|
|Paraview surface                   |surface_flowdatabladeVALIDATION_Blade_14.vtu|
|                                   |                     (109.037 MB/s)|
|SU2 ASCII restart                  |restart_flow_databladeVALIDATION_Blade_14.csv|
|                                   |                     (21.6723 MB/s)|
|CSV file                           |surface_flowdatabladeVALIDATION_Blade_14.csv|
|                                   |                      (21.147 MB/s)|
+-----------------------------------------------------------------------+
+--------------------------------------+
|  Inner_Iter|    Cur_Time|    rms[Rho]|
+--------------------------------------+
|        1160|  0.0000e+00|   -4.715499|
|        1170|  0.0000e+00|   -4.577385|
|        1180|  0.0000e+00|   -4.766667|
|        1190|  0.0000e+00|   -4.840675|
|        1200|  0.0000e+00|   -4.766481|
+-----------------------------------------------------------------------+
|        File Writing Summary       |              Filename             |
+-----------------------------------------------------------------------+
|SU2 binary restart                 |restart_flow_databladeVALIDATION_Blade_14.dat|
|                                   |                     (12309.1 MB/s)|
|Paraview                           |volume_flow_databladeVALIDATION_Blade_14.vtu|
|                                   |                     (961.172 MB/s)|
|Paraview surface                   |surface_flowdatabladeVALIDATION_Blade_14.vtu|
|                                   |                     (103.623 MB/s)|
|SU2 ASCII restart                  |restart_flow_databladeVALIDATION_Blade_14.csv|
|                                   |                       (21.75 MB/s)|
|CSV file                           |surface_flowdatabladeVALIDATION_Blade_14.csv|
|                                   |                     (20.6015 MB/s)|
+-----------------------------------------------------------------------+
+--------------------------------------+
|  Inner_Iter|    Cur_Time|    rms[Rho]|
+--------------------------------------+
|        1210|  0.0000e+00|   -4.707543|
|        1220|  0.0000e+00|   -4.851032|
|        1230|  0.0000e+00|   -4.882813|
|        1240|  0.0000e+00|   -4.820950|
|        1250|  0.0000e+00|   -4.819474|
+-----------------------------------------------------------------------+
|        File Writing Summary       |              Filename             |
+-----------------------------------------------------------------------+
|SU2 binary restart                 |restart_flow_databladeVALIDATION_Blade_14.dat|
|                                   |                     (12496.5 MB/s)|
|Paraview                           |volume_flow_databladeVALIDATION_Blade_14.vtu|
|                                   |                     (1117.06 MB/s)|
|Paraview surface                   |surface_flowdatabladeVALIDATION_Blade_14.vtu|
|                                   |                     (99.1556 MB/s)|
|SU2 ASCII restart                  |restart_flow_databladeVALIDATION_Blade_14.csv|
|                                   |                     (21.9252 MB/s)|
|CSV file                           |surface_flowdatabladeVALIDATION_Blade_14.csv|
|                                   |                     (22.0634 MB/s)|
+-----------------------------------------------------------------------+
+--------------------------------------+
|  Inner_Iter|    Cur_Time|    rms[Rho]|
+--------------------------------------+
|        1260|  0.0000e+00|   -4.901982|
|        1270|  0.0000e+00|   -4.906435|
|        1280|  0.0000e+00|   -4.834040|
|        1290|  0.0000e+00|   -4.867733|
|        1300|  0.0000e+00|   -4.962951|
+-----------------------------------------------------------------------+
|        File Writing Summary       |              Filename             |
+-----------------------------------------------------------------------+
|SU2 binary restart                 |restart_flow_databladeVALIDATION_Blade_14.dat|
|                                   |                     (12486.3 MB/s)|
|Paraview                           |volume_flow_databladeVALIDATION_Blade_14.vtu|
|                                   |                      (1112.6 MB/s)|
|Paraview surface                   |surface_flowdatabladeVALIDATION_Blade_14.vtu|
|                                   |                     (105.576 MB/s)|
|SU2 ASCII restart                  |restart_flow_databladeVALIDATION_Blade_14.csv|
|                                   |                      (21.164 MB/s)|
|CSV file                           |surface_flowdatabladeVALIDATION_Blade_14.csv|
|                                   |                     (21.5194 MB/s)|
+-----------------------------------------------------------------------+
+--------------------------------------+
|  Inner_Iter|    Cur_Time|    rms[Rho]|
+--------------------------------------+
|        1310|  0.0000e+00|   -4.871800|
|        1320|  0.0000e+00|   -4.919754|
|        1330|  0.0000e+00|   -4.997953|
|        1340|  0.0000e+00|   -4.962827|
|        1350|  0.0000e+00|   -4.813013|
+-----------------------------------------------------------------------+
|        File Writing Summary       |              Filename             |
+-----------------------------------------------------------------------+
|SU2 binary restart                 |restart_flow_databladeVALIDATION_Blade_14.dat|
|                                   |                     (12805.7 MB/s)|
|Paraview                           |volume_flow_databladeVALIDATION_Blade_14.vtu|
|                                   |                     (1138.34 MB/s)|
|Paraview surface                   |surface_flowdatabladeVALIDATION_Blade_14.vtu|
|                                   |                     (106.779 MB/s)|
|SU2 ASCII restart                  |restart_flow_databladeVALIDATION_Blade_14.csv|
|                                   |                     (21.4741 MB/s)|
|CSV file                           |surface_flowdatabladeVALIDATION_Blade_14.csv|
|                                   |                     (18.4614 MB/s)|
+-----------------------------------------------------------------------+
+--------------------------------------+
|  Inner_Iter|    Cur_Time|    rms[Rho]|
+--------------------------------------+
|        1360|  0.0000e+00|   -4.994766|
|        1370|  0.0000e+00|   -5.049817|
|        1380|  0.0000e+00|   -4.939322|
|        1390|  0.0000e+00|   -4.911224|
|        1400|  0.0000e+00|   -5.003294|
+-----------------------------------------------------------------------+
|        File Writing Summary       |              Filename             |
+-----------------------------------------------------------------------+
|SU2 binary restart                 |restart_flow_databladeVALIDATION_Blade_14.dat|
|                                   |                     (12708.7 MB/s)|
|Paraview                           |volume_flow_databladeVALIDATION_Blade_14.vtu|
|                                   |                     (1084.25 MB/s)|
|Paraview surface                   |surface_flowdatabladeVALIDATION_Blade_14.vtu|
|                                   |                     (100.868 MB/s)|
|SU2 ASCII restart                  |restart_flow_databladeVALIDATION_Blade_14.csv|
|                                   |                     (21.6586 MB/s)|
|CSV file                           |surface_flowdatabladeVALIDATION_Blade_14.csv|
|                                   |                     (21.7052 MB/s)|
+-----------------------------------------------------------------------+
+--------------------------------------+
|  Inner_Iter|    Cur_Time|    rms[Rho]|
+--------------------------------------+
|        1410|  0.0000e+00|   -4.874307|
|        1420|  0.0000e+00|   -5.128004|
|        1430|  0.0000e+00|   -4.995696|
|        1440|  0.0000e+00|   -5.122059|
|        1450|  0.0000e+00|   -4.975613|
+-----------------------------------------------------------------------+
|        File Writing Summary       |              Filename             |
+-----------------------------------------------------------------------+
|SU2 binary restart                 |restart_flow_databladeVALIDATION_Blade_14.dat|
|                                   |                     (12482.2 MB/s)|
|Paraview                           |volume_flow_databladeVALIDATION_Blade_14.vtu|
|                                   |                      (1108.1 MB/s)|
|Paraview surface                   |surface_flowdatabladeVALIDATION_Blade_14.vtu|
|                                   |                     (106.169 MB/s)|
|SU2 ASCII restart                  |restart_flow_databladeVALIDATION_Blade_14.csv|
|                                   |                     (21.9616 MB/s)|
|CSV file                           |surface_flowdatabladeVALIDATION_Blade_14.csv|
|                                   |                     (19.7906 MB/s)|
+-----------------------------------------------------------------------+
+--------------------------------------+
|  Inner_Iter|    Cur_Time|    rms[Rho]|
+--------------------------------------+
|        1460|  0.0000e+00|   -5.185427|
|        1470|  0.0000e+00|   -5.123109|
|        1480|  0.0000e+00|   -5.107509|
|        1490|  0.0000e+00|   -5.216731|
|        1500|  0.0000e+00|   -5.224800|
+-----------------------------------------------------------------------+
|        File Writing Summary       |              Filename             |
+-----------------------------------------------------------------------+
|SU2 binary restart                 |restart_flow_databladeVALIDATION_Blade_14.dat|
|                                   |                     (12178.5 MB/s)|
|Paraview                           |volume_flow_databladeVALIDATION_Blade_14.vtu|
|                                   |                     (1065.17 MB/s)|
|Paraview surface                   |surface_flowdatabladeVALIDATION_Blade_14.vtu|
|                                   |                     (96.4756 MB/s)|
|SU2 ASCII restart                  |restart_flow_databladeVALIDATION_Blade_14.csv|
|                                   |                     (21.6405 MB/s)|
|CSV file                           |surface_flowdatabladeVALIDATION_Blade_14.csv|
|                                   |                     (20.1218 MB/s)|
+-----------------------------------------------------------------------+
+--------------------------------------+
|  Inner_Iter|    Cur_Time|    rms[Rho]|
+--------------------------------------+
|        1510|  0.0000e+00|   -5.126042|
|        1520|  0.0000e+00|   -5.268099|
|        1530|  0.0000e+00|   -5.211007|
|        1540|  0.0000e+00|   -5.226216|
|        1550|  0.0000e+00|   -5.263553|
+-----------------------------------------------------------------------+
|        File Writing Summary       |              Filename             |
+-----------------------------------------------------------------------+
|SU2 binary restart                 |restart_flow_databladeVALIDATION_Blade_14.dat|
|                                   |                     (12312.1 MB/s)|
|Paraview                           |volume_flow_databladeVALIDATION_Blade_14.vtu|
|                                   |                     (993.611 MB/s)|
|Paraview surface                   |surface_flowdatabladeVALIDATION_Blade_14.vtu|
|                                   |                     (105.795 MB/s)|
|SU2 ASCII restart                  |restart_flow_databladeVALIDATION_Blade_14.csv|
|                                   |                     (21.7565 MB/s)|
|CSV file                           |surface_flowdatabladeVALIDATION_Blade_14.csv|
|                                   |                     (22.4506 MB/s)|
+-----------------------------------------------------------------------+
+--------------------------------------+
|  Inner_Iter|    Cur_Time|    rms[Rho]|
+--------------------------------------+
|        1560|  0.0000e+00|   -5.137553|
|        1570|  0.0000e+00|   -5.162009|
|        1580|  0.0000e+00|   -5.202175|
|        1590|  0.0000e+00|   -5.255540|
|        1600|  0.0000e+00|   -5.331176|
+-----------------------------------------------------------------------+
|        File Writing Summary       |              Filename             |
+-----------------------------------------------------------------------+
|SU2 binary restart                 |restart_flow_databladeVALIDATION_Blade_14.dat|
|                                   |                     (12306.1 MB/s)|
|Paraview                           |volume_flow_databladeVALIDATION_Blade_14.vtu|
|                                   |                     (1119.13 MB/s)|
|Paraview surface                   |surface_flowdatabladeVALIDATION_Blade_14.vtu|
|                                   |                     (106.396 MB/s)|
|SU2 ASCII restart                  |restart_flow_databladeVALIDATION_Blade_14.csv|
|                                   |                     (21.6069 MB/s)|
|CSV file                           |surface_flowdatabladeVALIDATION_Blade_14.csv|
|                                   |                     (21.2718 MB/s)|
+-----------------------------------------------------------------------+
+--------------------------------------+
|  Inner_Iter|    Cur_Time|    rms[Rho]|
+--------------------------------------+
|        1610|  0.0000e+00|   -5.341475|
|        1620|  0.0000e+00|   -5.327608|
|        1630|  0.0000e+00|   -5.348199|
|        1640|  0.0000e+00|   -5.322240|
|        1650|  0.0000e+00|   -5.359136|
+-----------------------------------------------------------------------+
|        File Writing Summary       |              Filename             |
+-----------------------------------------------------------------------+
|SU2 binary restart                 |restart_flow_databladeVALIDATION_Blade_14.dat|
|                                   |                     (11641.7 MB/s)|
|Paraview                           |volume_flow_databladeVALIDATION_Blade_14.vtu|
|                                   |                     (1138.36 MB/s)|
|Paraview surface                   |surface_flowdatabladeVALIDATION_Blade_14.vtu|
|                                   |                     (102.948 MB/s)|
|SU2 ASCII restart                  |restart_flow_databladeVALIDATION_Blade_14.csv|
|                                   |                     (21.6764 MB/s)|
|CSV file                           |surface_flowdatabladeVALIDATION_Blade_14.csv|
|                                   |                       (20.94 MB/s)|
+-----------------------------------------------------------------------+
+--------------------------------------+
|  Inner_Iter|    Cur_Time|    rms[Rho]|
+--------------------------------------+
|        1660|  0.0000e+00|   -5.426163|
|        1670|  0.0000e+00|   -5.455301|
|        1680|  0.0000e+00|   -5.452411|
|        1690|  0.0000e+00|   -5.536216|
|        1700|  0.0000e+00|   -5.494431|
+-----------------------------------------------------------------------+
|        File Writing Summary       |              Filename             |
+-----------------------------------------------------------------------+
|SU2 binary restart                 |restart_flow_databladeVALIDATION_Blade_14.dat|
|                                   |                     (12766.1 MB/s)|
|Paraview                           |volume_flow_databladeVALIDATION_Blade_14.vtu|
|                                   |                     (996.523 MB/s)|
|Paraview surface                   |surface_flowdatabladeVALIDATION_Blade_14.vtu|
|                                   |                     (74.1375 MB/s)|
|SU2 ASCII restart                  |restart_flow_databladeVALIDATION_Blade_14.csv|
|                                   |                       (21.77 MB/s)|
|CSV file                           |surface_flowdatabladeVALIDATION_Blade_14.csv|
|                                   |                     (22.4971 MB/s)|
+-----------------------------------------------------------------------+
+--------------------------------------+
|  Inner_Iter|    Cur_Time|    rms[Rho]|
+--------------------------------------+
|        1710|  0.0000e+00|   -5.454404|
|        1720|  0.0000e+00|   -5.486038|
|        1730|  0.0000e+00|   -5.527704|
|        1740|  0.0000e+00|   -5.437461|
|        1750|  0.0000e+00|   -5.491268|
+-----------------------------------------------------------------------+
|        File Writing Summary       |              Filename             |
+-----------------------------------------------------------------------+
|SU2 binary restart                 |restart_flow_databladeVALIDATION_Blade_14.dat|
|                                   |                     (12648.7 MB/s)|
|Paraview                           |volume_flow_databladeVALIDATION_Blade_14.vtu|
|                                   |                      (1026.3 MB/s)|
|Paraview surface                   |surface_flowdatabladeVALIDATION_Blade_14.vtu|
|                                   |                     (103.125 MB/s)|
|SU2 ASCII restart                  |restart_flow_databladeVALIDATION_Blade_14.csv|
|                                   |                     (22.0172 MB/s)|
|CSV file                           |surface_flowdatabladeVALIDATION_Blade_14.csv|
|                                   |                     (20.9241 MB/s)|
+-----------------------------------------------------------------------+
+--------------------------------------+
|  Inner_Iter|    Cur_Time|    rms[Rho]|
+--------------------------------------+
|        1760|  0.0000e+00|   -5.485937|
|        1770|  0.0000e+00|   -5.464281|
|        1780|  0.0000e+00|   -5.427238|
|        1790|  0.0000e+00|   -5.545222|
|        1800|  0.0000e+00|   -5.574435|
+-----------------------------------------------------------------------+
|        File Writing Summary       |              Filename             |
+-----------------------------------------------------------------------+
|SU2 binary restart                 |restart_flow_databladeVALIDATION_Blade_14.dat|
|                                   |                     (12596.5 MB/s)|
|Paraview                           |volume_flow_databladeVALIDATION_Blade_14.vtu|
|                                   |                     (1109.57 MB/s)|
|Paraview surface                   |surface_flowdatabladeVALIDATION_Blade_14.vtu|
|                                   |                     (104.749 MB/s)|
|SU2 ASCII restart                  |restart_flow_databladeVALIDATION_Blade_14.csv|
|                                   |                     (21.8332 MB/s)|
|CSV file                           |surface_flowdatabladeVALIDATION_Blade_14.csv|
|                                   |                     (21.5932 MB/s)|
+-----------------------------------------------------------------------+
+--------------------------------------+
|  Inner_Iter|    Cur_Time|    rms[Rho]|
+--------------------------------------+
|        1810|  0.0000e+00|   -5.527788|
|        1820|  0.0000e+00|   -5.608171|
|        1830|  0.0000e+00|   -5.640518|
|        1840|  0.0000e+00|   -5.591329|
|        1850|  0.0000e+00|   -5.582627|
+-----------------------------------------------------------------------+
|        File Writing Summary       |              Filename             |
+-----------------------------------------------------------------------+
|SU2 binary restart                 |restart_flow_databladeVALIDATION_Blade_14.dat|
|                                   |                     (12445.6 MB/s)|
|Paraview                           |volume_flow_databladeVALIDATION_Blade_14.vtu|
|                                   |                     (1105.56 MB/s)|
|Paraview surface                   |surface_flowdatabladeVALIDATION_Blade_14.vtu|
|                                   |                     (106.212 MB/s)|
|SU2 ASCII restart                  |restart_flow_databladeVALIDATION_Blade_14.csv|
|                                   |                     (21.5518 MB/s)|
|CSV file                           |surface_flowdatabladeVALIDATION_Blade_14.csv|
|                                   |                     (22.4435 MB/s)|
+-----------------------------------------------------------------------+
+--------------------------------------+
|  Inner_Iter|    Cur_Time|    rms[Rho]|
+--------------------------------------+
|        1860|  0.0000e+00|   -5.627331|
|        1870|  0.0000e+00|   -5.626373|
|        1880|  0.0000e+00|   -5.557474|
|        1890|  0.0000e+00|   -5.531091|
|        1900|  0.0000e+00|   -5.621620|
+-----------------------------------------------------------------------+
|        File Writing Summary       |              Filename             |
+-----------------------------------------------------------------------+
|SU2 binary restart                 |restart_flow_databladeVALIDATION_Blade_14.dat|
|                                   |                     (12784.3 MB/s)|
|Paraview                           |volume_flow_databladeVALIDATION_Blade_14.vtu|
|                                   |                     (953.002 MB/s)|
|Paraview surface                   |surface_flowdatabladeVALIDATION_Blade_14.vtu|
|                                   |                     (98.6626 MB/s)|
|SU2 ASCII restart                  |restart_flow_databladeVALIDATION_Blade_14.csv|
|                                   |                     (21.4861 MB/s)|
|CSV file                           |surface_flowdatabladeVALIDATION_Blade_14.csv|
|                                   |                      (22.638 MB/s)|
+-----------------------------------------------------------------------+
+--------------------------------------+
|  Inner_Iter|    Cur_Time|    rms[Rho]|
+--------------------------------------+
|        1910|  0.0000e+00|   -5.633650|
|        1920|  0.0000e+00|   -5.618489|
|        1930|  0.0000e+00|   -5.714864|
|        1940|  0.0000e+00|   -5.757688|
|        1950|  0.0000e+00|   -5.725333|
+-----------------------------------------------------------------------+
|        File Writing Summary       |              Filename             |
+-----------------------------------------------------------------------+
|SU2 binary restart                 |restart_flow_databladeVALIDATION_Blade_14.dat|
|                                   |                     (395.058 MB/s)|
|Paraview                           |volume_flow_databladeVALIDATION_Blade_14.vtu|
|                                   |                     (973.238 MB/s)|
|Paraview surface                   |surface_flowdatabladeVALIDATION_Blade_14.vtu|
|                                   |                     (87.6726 MB/s)|
|SU2 ASCII restart                  |restart_flow_databladeVALIDATION_Blade_14.csv|
|                                   |                     (20.9837 MB/s)|
|CSV file                           |surface_flowdatabladeVALIDATION_Blade_14.csv|
|                                   |                     (21.9666 MB/s)|
+-----------------------------------------------------------------------+
+--------------------------------------+
|  Inner_Iter|    Cur_Time|    rms[Rho]|
+--------------------------------------+
|        1960|  0.0000e+00|   -5.709170|
|        1970|  0.0000e+00|   -5.768636|
|        1980|  0.0000e+00|   -5.772561|
|        1990|  0.0000e+00|   -5.691283|
|        2000|  0.0000e+00|   -5.678348|
+-----------------------------------------------------------------------+
|        File Writing Summary       |              Filename             |
+-----------------------------------------------------------------------+
|SU2 binary restart                 |restart_flow_databladeVALIDATION_Blade_14.dat|
|                                   |                     (8264.03 MB/s)|
|Paraview                           |volume_flow_databladeVALIDATION_Blade_14.vtu|
|                                   |                     (1040.62 MB/s)|
|Paraview surface                   |surface_flowdatabladeVALIDATION_Blade_14.vtu|
|                                   |                     (103.366 MB/s)|
|SU2 ASCII restart                  |restart_flow_databladeVALIDATION_Blade_14.csv|
|                                   |                     (20.9402 MB/s)|
|CSV file                           |surface_flowdatabladeVALIDATION_Blade_14.csv|
|                                   |                      (19.269 MB/s)|
+-----------------------------------------------------------------------+
+--------------------------------------+
|  Inner_Iter|    Cur_Time|    rms[Rho]|
+--------------------------------------+
|        2010|  0.0000e+00|   -5.745340|
|        2020|  0.0000e+00|   -5.744381|
|        2030|  0.0000e+00|   -5.692944|
|        2040|  0.0000e+00|   -5.750977|
|        2050|  0.0000e+00|   -5.836543|
+-----------------------------------------------------------------------+
|        File Writing Summary       |              Filename             |
+-----------------------------------------------------------------------+
|SU2 binary restart                 |restart_flow_databladeVALIDATION_Blade_14.dat|
|                                   |                     (11390.7 MB/s)|
|Paraview                           |volume_flow_databladeVALIDATION_Blade_14.vtu|
|                                   |                     (1101.48 MB/s)|
|Paraview surface                   |surface_flowdatabladeVALIDATION_Blade_14.vtu|
|                                   |                      (101.16 MB/s)|
|SU2 ASCII restart                  |restart_flow_databladeVALIDATION_Blade_14.csv|
|                                   |                     (21.8916 MB/s)|
|CSV file                           |surface_flowdatabladeVALIDATION_Blade_14.csv|
|                                   |                     (20.1137 MB/s)|
+-----------------------------------------------------------------------+
+--------------------------------------+
|  Inner_Iter|    Cur_Time|    rms[Rho]|
+--------------------------------------+
|        2060|  0.0000e+00|   -5.834248|
|        2070|  0.0000e+00|   -5.811932|
|        2080|  0.0000e+00|   -5.851498|
|        2090|  0.0000e+00|   -5.884131|
|        2100|  0.0000e+00|   -5.778837|
+-----------------------------------------------------------------------+
|        File Writing Summary       |              Filename             |
+-----------------------------------------------------------------------+
|SU2 binary restart                 |restart_flow_databladeVALIDATION_Blade_14.dat|
|                                   |                     (12971.1 MB/s)|
|Paraview                           |volume_flow_databladeVALIDATION_Blade_14.vtu|
|                                   |                     (1147.29 MB/s)|
|Paraview surface                   |surface_flowdatabladeVALIDATION_Blade_14.vtu|
|                                   |                     (88.3074 MB/s)|
|SU2 ASCII restart                  |restart_flow_databladeVALIDATION_Blade_14.csv|
|                                   |                     (21.5042 MB/s)|
|CSV file                           |surface_flowdatabladeVALIDATION_Blade_14.csv|
|                                   |                     (20.2931 MB/s)|
+-----------------------------------------------------------------------+
+--------------------------------------+
|  Inner_Iter|    Cur_Time|    rms[Rho]|
+--------------------------------------+
|        2110|  0.0000e+00|   -5.794518|
|        2120|  0.0000e+00|   -5.859249|
|        2130|  0.0000e+00|   -5.831942|
|        2140|  0.0000e+00|   -5.756346|
|        2150|  0.0000e+00|   -5.807465|
+-----------------------------------------------------------------------+
|        File Writing Summary       |              Filename             |
+-----------------------------------------------------------------------+
|SU2 binary restart                 |restart_flow_databladeVALIDATION_Blade_14.dat|
|                                   |                     (12361.9 MB/s)|
|Paraview                           |volume_flow_databladeVALIDATION_Blade_14.vtu|
|                                   |                     (1067.14 MB/s)|
|Paraview surface                   |surface_flowdatabladeVALIDATION_Blade_14.vtu|
|                                   |                     (93.9103 MB/s)|
|SU2 ASCII restart                  |restart_flow_databladeVALIDATION_Blade_14.csv|
|                                   |                     (21.7622 MB/s)|
|CSV file                           |surface_flowdatabladeVALIDATION_Blade_14.csv|
|                                   |                     (22.4641 MB/s)|
+-----------------------------------------------------------------------+
+--------------------------------------+
|  Inner_Iter|    Cur_Time|    rms[Rho]|
+--------------------------------------+
|        2160|  0.0000e+00|   -5.877257|
|        2170|  0.0000e+00|   -5.843150|
|        2180|  0.0000e+00|   -5.889140|
|        2190|  0.0000e+00|   -5.942360|
|        2200|  0.0000e+00|   -5.879887|
+-----------------------------------------------------------------------+
|        File Writing Summary       |              Filename             |
+-----------------------------------------------------------------------+
|SU2 binary restart                 |restart_flow_databladeVALIDATION_Blade_14.dat|
|                                   |                     (12512.9 MB/s)|
|Paraview                           |volume_flow_databladeVALIDATION_Blade_14.vtu|
|                                   |                     (1072.16 MB/s)|
|Paraview surface                   |surface_flowdatabladeVALIDATION_Blade_14.vtu|
|                                   |                     (86.3343 MB/s)|
|SU2 ASCII restart                  |restart_flow_databladeVALIDATION_Blade_14.csv|
|                                   |                       (22.34 MB/s)|
|CSV file                           |surface_flowdatabladeVALIDATION_Blade_14.csv|
|                                   |                     (22.3492 MB/s)|
+-----------------------------------------------------------------------+
+--------------------------------------+
|  Inner_Iter|    Cur_Time|    rms[Rho]|
+--------------------------------------+
|        2210|  0.0000e+00|   -5.904979|
|        2220|  0.0000e+00|   -5.956097|
|        2230|  0.0000e+00|   -5.844955|
|        2240|  0.0000e+00|   -5.800769|
|        2250|  0.0000e+00|   -5.898624|
+-----------------------------------------------------------------------+
|        File Writing Summary       |              Filename             |
+-----------------------------------------------------------------------+
|SU2 binary restart                 |restart_flow_databladeVALIDATION_Blade_14.dat|
|                                   |                     (11831.2 MB/s)|
|Paraview                           |volume_flow_databladeVALIDATION_Blade_14.vtu|
|                                   |                     (962.782 MB/s)|
|Paraview surface                   |surface_flowdatabladeVALIDATION_Blade_14.vtu|
|                                   |                     (82.1773 MB/s)|
|SU2 ASCII restart                  |restart_flow_databladeVALIDATION_Blade_14.csv|
|                                   |                     (21.2504 MB/s)|
|CSV file                           |surface_flowdatabladeVALIDATION_Blade_14.csv|
|                                   |                     (20.4831 MB/s)|
+-----------------------------------------------------------------------+
+--------------------------------------+
|  Inner_Iter|    Cur_Time|    rms[Rho]|
+--------------------------------------+
|        2260|  0.0000e+00|   -5.905066|
|        2270|  0.0000e+00|   -5.864483|
|        2280|  0.0000e+00|   -5.947650|
|        2290|  0.0000e+00|   -6.042950|
|        2300|  0.0000e+00|   -6.008954|
+-----------------------------------------------------------------------+
|        File Writing Summary       |              Filename             |
+-----------------------------------------------------------------------+
|SU2 binary restart                 |restart_flow_databladeVALIDATION_Blade_14.dat|
|                                   |                     (12398.1 MB/s)|
|Paraview                           |volume_flow_databladeVALIDATION_Blade_14.vtu|
|                                   |                      (1125.3 MB/s)|
|Paraview surface                   |surface_flowdatabladeVALIDATION_Blade_14.vtu|
|                                   |                     (109.113 MB/s)|
|SU2 ASCII restart                  |restart_flow_databladeVALIDATION_Blade_14.csv|
|                                   |                      (22.051 MB/s)|
|CSV file                           |surface_flowdatabladeVALIDATION_Blade_14.csv|
|                                   |                     (21.4805 MB/s)|
+-----------------------------------------------------------------------+
+--------------------------------------+
|  Inner_Iter|    Cur_Time|    rms[Rho]|
+--------------------------------------+
|        2310|  0.0000e+00|   -5.991135|
|        2320|  0.0000e+00|   -6.072214|
|        2330|  0.0000e+00|   -6.077191|
|        2340|  0.0000e+00|   -5.936057|
|        2350|  0.0000e+00|   -5.951417|
+-----------------------------------------------------------------------+
|        File Writing Summary       |              Filename             |
+-----------------------------------------------------------------------+
|SU2 binary restart                 |restart_flow_databladeVALIDATION_Blade_14.dat|
|                                   |                     (13243.4 MB/s)|
|Paraview                           |volume_flow_databladeVALIDATION_Blade_14.vtu|
[...]
+-----------------------------------------------------------------------+
|SU2 binary restart                 |restart_flow_databladeVALIDATION_Blade_14.dat|
|                                   |                     (10574.2 MB/s)|
|Paraview                           |volume_flow_databladeVALIDATION_Blade_14.vtu|
|                                   |                     (1001.81 MB/s)|
|Paraview surface                   |surface_flowdatabladeVALIDATION_Blade_14.vtu|
|                                   |                     (104.343 MB/s)|
|SU2 ASCII restart                  |restart_flow_databladeVALIDATION_Blade_14.csv|
|                                   |                     (21.4994 MB/s)|
|CSV file                           |surface_flowdatabladeVALIDATION_Blade_14.csv|
|                                   |                     (20.2286 MB/s)|
+-----------------------------------------------------------------------+
+--------------------------------------+
|  Inner_Iter|    Cur_Time|    rms[Rho]|
+--------------------------------------+
|        2860|  0.0000e+00|   -6.569554|
|        2870|  0.0000e+00|   -6.511079|
|        2880|  0.0000e+00|   -6.570762|
|        2890|  0.0000e+00|   -6.628434|
|        2900|  0.0000e+00|   -6.547026|
+-----------------------------------------------------------------------+
|        File Writing Summary       |              Filename             |
+-----------------------------------------------------------------------+
|SU2 binary restart                 |restart_flow_databladeVALIDATION_Blade_14.dat|
|                                   |                     (11606.3 MB/s)|
|Paraview                           |volume_flow_databladeVALIDATION_Blade_14.vtu|
|                                   |                     (1108.55 MB/s)|
|Paraview surface                   |surface_flowdatabladeVALIDATION_Blade_14.vtu|
|                                   |                     (87.0566 MB/s)|
|SU2 ASCII restart                  |restart_flow_databladeVALIDATION_Blade_14.csv|
|                                   |                     (21.7658 MB/s)|
|CSV file                           |surface_flowdatabladeVALIDATION_Blade_14.csv|
|                                   |                     (20.6812 MB/s)|
+-----------------------------------------------------------------------+
+--------------------------------------+
|  Inner_Iter|    Cur_Time|    rms[Rho]|
+--------------------------------------+
|        2910|  0.0000e+00|   -6.517667|
|        2920|  0.0000e+00|   -6.571086|
|        2930|  0.0000e+00|   -6.567226|
|        2940|  0.0000e+00|   -6.498337|
|        2950|  0.0000e+00|   -6.447912|
+-----------------------------------------------------------------------+
|        File Writing Summary       |              Filename             |
+-----------------------------------------------------------------------+
|SU2 binary restart                 |restart_flow_databladeVALIDATION_Blade_14.dat|
|                                   |                     (11754.7 MB/s)|
|Paraview                           |volume_flow_databladeVALIDATION_Blade_14.vtu|
|                                   |                     (965.283 MB/s)|
|Paraview surface                   |surface_flowdatabladeVALIDATION_Blade_14.vtu|
|                                   |                     (99.2313 MB/s)|
|SU2 ASCII restart                  |restart_flow_databladeVALIDATION_Blade_14.csv|
|                                   |                     (21.6961 MB/s)|
|CSV file                           |surface_flowdatabladeVALIDATION_Blade_14.csv|
|                                   |                     (19.4658 MB/s)|
+-----------------------------------------------------------------------+
+--------------------------------------+
|  Inner_Iter|    Cur_Time|    rms[Rho]|
+--------------------------------------+
|        2960|  0.0000e+00|   -6.619471|
|        2970|  0.0000e+00|   -6.644760|
|        2980|  0.0000e+00|   -6.613248|
|        2990|  0.0000e+00|   -6.643334|
|        3000|  0.0000e+00|   -6.709359|
+-----------------------------------------------------------------------+
|        File Writing Summary       |              Filename             |
+-----------------------------------------------------------------------+
|SU2 binary restart                 |restart_flow_databladeVALIDATION_Blade_14.dat|
|                                   |                     (6133.28 MB/s)|
|Paraview                           |volume_flow_databladeVALIDATION_Blade_14.vtu|
|                                   |                      (936.43 MB/s)|
|Paraview surface                   |surface_flowdatabladeVALIDATION_Blade_14.vtu|
|                                   |                     (80.7908 MB/s)|
|SU2 ASCII restart                  |restart_flow_databladeVALIDATION_Blade_14.csv|
|                                   |                     (21.0983 MB/s)|
|CSV file                           |surface_flowdatabladeVALIDATION_Blade_14.csv|
|                                   |                     (19.2284 MB/s)|
+-----------------------------------------------------------------------+
+--------------------------------------+
|  Inner_Iter|    Cur_Time|    rms[Rho]|
+--------------------------------------+
|        3010|  0.0000e+00|   -6.673384|
|        3020|  0.0000e+00|   -6.581754|
|        3030|  0.0000e+00|   -6.702691|
|        3040|  0.0000e+00|   -6.675067|
|        3050|  0.0000e+00|   -6.598325|
+-----------------------------------------------------------------------+
|        File Writing Summary       |              Filename             |
+-----------------------------------------------------------------------+
|SU2 binary restart                 |restart_flow_databladeVALIDATION_Blade_14.dat|
|                                   |                     (12309.1 MB/s)|
|Paraview                           |volume_flow_databladeVALIDATION_Blade_14.vtu|
|                                   |                     (846.347 MB/s)|
|Paraview surface                   |surface_flowdatabladeVALIDATION_Blade_14.vtu|
|                                   |                     (65.1719 MB/s)|
|SU2 ASCII restart                  |restart_flow_databladeVALIDATION_Blade_14.csv|
|                                   |                     (20.6312 MB/s)|
|CSV file                           |surface_flowdatabladeVALIDATION_Blade_14.csv|
|                                   |                     (16.9178 MB/s)|
+-----------------------------------------------------------------------+
+--------------------------------------+
|  Inner_Iter|    Cur_Time|    rms[Rho]|
+--------------------------------------+
|        3060|  0.0000e+00|   -6.601646|
|        3070|  0.0000e+00|   -6.706876|
|        3080|  0.0000e+00|   -6.685287|
|        3090|  0.0000e+00|   -6.664305|
|        3100|  0.0000e+00|   -6.774154|
+-----------------------------------------------------------------------+
|        File Writing Summary       |              Filename             |
+-----------------------------------------------------------------------+
|SU2 binary restart                 |restart_flow_databladeVALIDATION_Blade_14.dat|
|                                   |                       (10583 MB/s)|
|Paraview                           |volume_flow_databladeVALIDATION_Blade_14.vtu|
|                                   |                     (909.404 MB/s)|
|Paraview surface                   |surface_flowdatabladeVALIDATION_Blade_14.vtu|
|                                   |                     (108.315 MB/s)|
|SU2 ASCII restart                  |restart_flow_databladeVALIDATION_Blade_14.csv|
|                                   |                      (20.689 MB/s)|
|CSV file                           |surface_flowdatabladeVALIDATION_Blade_14.csv|
|                                   |                     (21.6535 MB/s)|
+-----------------------------------------------------------------------+
+--------------------------------------+
|  Inner_Iter|    Cur_Time|    rms[Rho]|
+--------------------------------------+
|        3110|  0.0000e+00|   -6.796947|
|        3120|  0.0000e+00|   -6.717312|
|        3130|  0.0000e+00|   -6.699392|
|        3140|  0.0000e+00|   -6.795283|
|        3150|  0.0000e+00|   -6.739326|
+-----------------------------------------------------------------------+
|        File Writing Summary       |              Filename             |
+-----------------------------------------------------------------------+
|SU2 binary restart                 |restart_flow_databladeVALIDATION_Blade_14.dat|
|                                   |                     (13673.9 MB/s)|
|Paraview                           |volume_flow_databladeVALIDATION_Blade_14.vtu|
|                                   |                     (1051.55 MB/s)|
|Paraview surface                   |surface_flowdatabladeVALIDATION_Blade_14.vtu|
|                                   |                     (95.4453 MB/s)|
|SU2 ASCII restart                  |restart_flow_databladeVALIDATION_Blade_14.csv|
|                                   |                     (21.7985 MB/s)|
|CSV file                           |surface_flowdatabladeVALIDATION_Blade_14.csv|
|                                   |                     (21.7791 MB/s)|
+-----------------------------------------------------------------------+
+--------------------------------------+
|  Inner_Iter|    Cur_Time|    rms[Rho]|
+--------------------------------------+
|        3160|  0.0000e+00|   -6.677984|
|        3170|  0.0000e+00|   -6.755409|
|        3180|  0.0000e+00|   -6.755400|
|        3190|  0.0000e+00|   -6.728639|
|        3200|  0.0000e+00|   -6.833833|
+-----------------------------------------------------------------------+
|        File Writing Summary       |              Filename             |
+-----------------------------------------------------------------------+
|SU2 binary restart                 |restart_flow_databladeVALIDATION_Blade_14.dat|
|                                   |                     (11247.2 MB/s)|
|Paraview                           |volume_flow_databladeVALIDATION_Blade_14.vtu|
|                                   |                     (1021.11 MB/s)|
|Paraview surface                   |surface_flowdatabladeVALIDATION_Blade_14.vtu|
|                                   |                     (95.2357 MB/s)|
|SU2 ASCII restart                  |restart_flow_databladeVALIDATION_Blade_14.csv|
|                                   |                     (21.7417 MB/s)|
|CSV file                           |surface_flowdatabladeVALIDATION_Blade_14.csv|
|                                   |                     (21.4661 MB/s)|
+-----------------------------------------------------------------------+
+--------------------------------------+
|  Inner_Iter|    Cur_Time|    rms[Rho]|
+--------------------------------------+
|        3210|  0.0000e+00|   -6.871272|
|        3220|  0.0000e+00|   -6.847858|
|        3230|  0.0000e+00|   -6.792942|
|        3240|  0.0000e+00|   -6.887579|
|        3250|  0.0000e+00|   -6.842429|
+-----------------------------------------------------------------------+
|        File Writing Summary       |              Filename             |
+-----------------------------------------------------------------------+
|SU2 binary restart                 |restart_flow_databladeVALIDATION_Blade_14.dat|
|                                   |                     (13115.9 MB/s)|
|Paraview                           |volume_flow_databladeVALIDATION_Blade_14.vtu|
|                                   |                     (1063.26 MB/s)|
|Paraview surface                   |surface_flowdatabladeVALIDATION_Blade_14.vtu|
|                                   |                     (94.1633 MB/s)|
|SU2 ASCII restart                  |restart_flow_databladeVALIDATION_Blade_14.csv|
|                                   |                     (21.7103 MB/s)|
|CSV file                           |surface_flowdatabladeVALIDATION_Blade_14.csv|
|                                   |                     (19.4978 MB/s)|
+-----------------------------------------------------------------------+
+--------------------------------------+
|  Inner_Iter|    Cur_Time|    rms[Rho]|
+--------------------------------------+
|        3260|  0.0000e+00|   -6.798794|
|        3270|  0.0000e+00|   -6.833575|
|        3280|  0.0000e+00|   -6.855319|
|        3290|  0.0000e+00|   -6.788834|
|        3300|  0.0000e+00|   -6.827486|
+-----------------------------------------------------------------------+
|        File Writing Summary       |              Filename             |
+-----------------------------------------------------------------------+
|SU2 binary restart                 |restart_flow_databladeVALIDATION_Blade_14.dat|
|                                   |                     (12458.8 MB/s)|
|Paraview                           |volume_flow_databladeVALIDATION_Blade_14.vtu|
|                                   |                     (862.419 MB/s)|
|Paraview surface                   |surface_flowdatabladeVALIDATION_Blade_14.vtu|
|                                   |                     (96.7307 MB/s)|
|SU2 ASCII restart                  |restart_flow_databladeVALIDATION_Blade_14.csv|
|                                   |                     (21.0354 MB/s)|
|CSV file                           |surface_flowdatabladeVALIDATION_Blade_14.csv|
|                                   |                     (20.8534 MB/s)|
+-----------------------------------------------------------------------+
+--------------------------------------+
|  Inner_Iter|    Cur_Time|    rms[Rho]|
+--------------------------------------+
|        3310|  0.0000e+00|   -6.934659|
|        3320|  0.0000e+00|   -6.928145|
|        3330|  0.0000e+00|   -6.897065|
|        3340|  0.0000e+00|   -6.915146|
|        3350|  0.0000e+00|   -6.970087|
+-----------------------------------------------------------------------+
|        File Writing Summary       |              Filename             |
+-----------------------------------------------------------------------+
|SU2 binary restart                 |restart_flow_databladeVALIDATION_Blade_14.dat|
|                                   |                     (8771.09 MB/s)|
|Paraview                           |volume_flow_databladeVALIDATION_Blade_14.vtu|
|                                   |                     (1094.91 MB/s)|
|Paraview surface                   |surface_flowdatabladeVALIDATION_Blade_14.vtu|
|                                   |                     (101.287 MB/s)|
|SU2 ASCII restart                  |restart_flow_databladeVALIDATION_Blade_14.csv|
|                                   |                     (21.7269 MB/s)|
|CSV file                           |surface_flowdatabladeVALIDATION_Blade_14.csv|
|                                   |                     (19.5799 MB/s)|
+-----------------------------------------------------------------------+
+--------------------------------------+
|  Inner_Iter|    Cur_Time|    rms[Rho]|
+--------------------------------------+
|        3360|  0.0000e+00|   -6.887502|
|        3370|  0.0000e+00|   -6.915298|
|        3380|  0.0000e+00|   -6.867163|
|        3390|  0.0000e+00|   -6.915086|
|        3400|  0.0000e+00|   -6.958749|
+-----------------------------------------------------------------------+
|        File Writing Summary       |              Filename             |
+-----------------------------------------------------------------------+
|SU2 binary restart                 |restart_flow_databladeVALIDATION_Blade_14.dat|
|                                   |                     (11988.2 MB/s)|
|Paraview                           |volume_flow_databladeVALIDATION_Blade_14.vtu|
|                                   |                     (1120.99 MB/s)|
|Paraview surface                   |surface_flowdatabladeVALIDATION_Blade_14.vtu|
|                                   |                     (100.144 MB/s)|
|SU2 ASCII restart                  |restart_flow_databladeVALIDATION_Blade_14.csv|
|                                   |                     (21.2379 MB/s)|
|CSV file                           |surface_flowdatabladeVALIDATION_Blade_14.csv|
|                                   |                     (19.4832 MB/s)|
+-----------------------------------------------------------------------+
+--------------------------------------+
|  Inner_Iter|    Cur_Time|    rms[Rho]|
+--------------------------------------+
|        3410|  0.0000e+00|   -6.916498|
|        3420|  0.0000e+00|   -6.929748|
|        3430|  0.0000e+00|   -6.935884|
|        3439|  0.0000e+00|   -7.014131|

----------------------------- Solver Exit -------------------------------
All convergence criteria satisfied.
+-----------------------------------------------------------------------+
|      Convergence Field     |     Value    |   Criterion  |  Converged |
+-----------------------------------------------------------------------+
|                    rms[Rho]|      -7.01413|          < -7|         Yes|
+-----------------------------------------------------------------------+
-------------------------------------------------------------------------
+-----------------------------------------------------------------------+
|        File Writing Summary       |              Filename             |
+-----------------------------------------------------------------------+
|SU2 binary restart                 |restart_flow_databladeVALIDATION_Blade_14.dat|
|                                   |                     (12941.4 MB/s)|
|Paraview                           |volume_flow_databladeVALIDATION_Blade_14.vtu|
|                                   |                     (1018.57 MB/s)|
|Paraview surface                   |surface_flowdatabladeVALIDATION_Blade_14.vtu|
|                                   |                     (83.9479 MB/s)|
|SU2 ASCII restart                  |restart_flow_databladeVALIDATION_Blade_14.csv|
|                                   |                     (21.7168 MB/s)|
|CSV file                           |surface_flowdatabladeVALIDATION_Blade_14.csv|
|                                   |                     (20.1834 MB/s)|
+-----------------------------------------------------------------------+

--------------------------- Finalizing Solver ---------------------------
Deleted CNumerics container.
Deleted CIntegration container.
Deleted CSolver container.
Deleted CIteration container.
Deleted CInterface container.
Deleted CGeometry container.
Deleted CFreeFormDefBox class.
Deleted CSurfaceMovement class.
Deleted CVolumetricMovement class.
Deleted CConfig container.
Deleted nInst container.
Deleted COutput class.
-------------------------------------------------------------------------


-------------------------- Performance Summary --------------------------
Simulation totals:
   Wall-clock time (hrs):   0.0978993 |            Core-hrs:     1.17479
                   Cores:          12 |          DOFs/point:           5
             Points/core:     4814.92 |   Ghost points/core:         148
 Ghost/Owned Point Ratio:   0.0307378 | 

Preprocessing phase:
       Preproc. Time (s):    0.412583 |   Preproc. Time (%):    0.117066

Compute phase:
        Compute Time (s):     349.876 |    Compute Time (%):     99.2731
         Iteration count:        3440 |         Avg. s/iter:    0.101708
     Core-s/iter/Mpoints:     20.4936 |           Mpoints/s:    0.585549

Output phase:
         Output Time (s):     2.14918 |     Output Time (%):    0.609806
            Output count:           1 |       Avg. s/output:     2.14918
 Restart Aggr. BW (MB/s):      821812 |           MB/s/core:     68484.4
-------------------------------------------------------------------------


------------------------- Exit Success (SU2_CFD) ------------------------

