
-------------------------------------------------------------------------
|    ___ _   _ ___                                                      |
|   / __| | | |_  )   Release 8.0.1 "Harrier"                           |
|   \__ \ |_| |/ /                                                      |
|   |___/\___//___|   Suite (Computational Fluid Dynamics Code)         |
|                                                                       |
-------------------------------------------------------------------------
| SU2 Project Website: https://su2code.github.io                        |
|                                                                       |
| The SU2 Project is maintained by the SU2 Foundation                   |
| (http://su2foundation.org)                                            |
-------------------------------------------------------------------------
| Copyright 2012-2024, SU2 Contributors                                 |
|                                                                       |
| SU2 is free software; you can redistribute it and/or                  |
| modify it under the terms of the GNU Lesser General Public            |
| License as published by the Free Software Foundation; either          |
| version 2.1 of the License, or (at your option) any later version.    |
|                                                                       |
| SU2 is distributed in the hope that it will be useful,                |
| but WITHOUT ANY WARRANTY; without even the implied warranty of        |
| MERCHANTABILITY or FITNESS FOR A PARTICULAR PURPOSE. See the GNU      |
| Lesser General Public License for more details.                       |
|                                                                       |
| You should have received a copy of the GNU Lesser General Public      |
| License along with SU2. If not, see <http://www.gnu.org/licenses/>.   |
-------------------------------------------------------------------------

Parsing config file for zone 0

----------------- Physical Case Definition ( Zone 0 ) -------------------
Compressible RANS equations.
Turbulence model: Spalart-Allmaras-noft2-BCM
Hybrid RANS/LES: No Hybrid RANS/LES
Mach number: 0.667.
Angle of attack (AoA): -6 deg, and angle of sideslip (AoS): 0 deg.
Reynolds number: 600000. Reference length 1.0021.
No restart solution, use the values at infinity (freestream).
Dimensional simulation.
The reference area will be computed using y(2D) or z(3D) projection.
The semi-span will be computed using the max y(3D) value.
The reference length is 1.0021 m.
Reference origin for moment evaluation is (0, 0, 0).
Surface(s) where the force coefficients are evaluated: blade1.

Surface(s) plotted in the output file: blade1.
Surface(s) to be analyzed in detail: inlet, outlet, blade1.
Input mesh file name: cascade2D_databladeVALIDATION_Blade_20.su2

--------------- Space Numerical Integration ( Zone 0 ) ------------------
Jameson-Schmidt-Turkel scheme (2nd order in space) for the flow inviscid terms.
JST viscous coefficients (2nd & 4th): 0.5, 0.02.
The method includes a grid stretching correction (p = 0.3).
Scalar upwind solver for the turbulence model.
First order integration in space.
Average of gradients with correction (viscous flow terms).
Average of gradients with correction (viscous turbulence terms).
Gradient for upwind reconstruction: inverse-distance weighted Least-Squares.
Gradient for viscous and source terms: inverse-distance weighted Least-Squares.

--------------- Time Numerical Integration  ( Zone 0 ) ------------------
Local time stepping (steady state simulation).
Euler implicit method for the flow equations.
FGMRES is used for solving the linear system.
Using a LU-SGS preconditioning.
Convergence criteria of the linear solver: 0.0001.
Max number of linear iterations: 10.
V Multigrid Cycle, with 3 multigrid levels.
Damping factor for the residual restriction: 0.75.
Damping factor for the correction prolongation: 0.75.
CFL adaptation. Factor down: 0.1, factor up: 1.2,
                lower limit: 0.1, upper limit: 100,
                acceptable linear residual: 0.001.
+-------------------------------------------+
|  MG Level| Presmooth|PostSmooth|CorrectSmo|
+-------------------------------------------+
|         0|         1|         0|         1|
|         1|         2|         2|         2|
|         2|         3|         3|         3|
|         3|         3|         0|         0|
+-------------------------------------------+
Courant-Friedrichs-Lewy number:       12
Euler implicit time integration for the turbulence model.

------------------ Convergence Criteria  ( Zone 0 ) ---------------------
Maximum number of solver subiterations: 7000.
Begin convergence monitoring at iteration 500.
Residual minimum value: 1e-7.
Cauchy series min. value: 1e-10.
Number of Cauchy elements: 100.
Begin windowed time average at iteration 0.

-------------------- Output Information ( Zone 0 ) ----------------------
File writing frequency: 
+------------------------------------+
|                     File| Frequency|
+------------------------------------+
|                  RESTART|        50|
|                 PARAVIEW|        50|
|         SURFACE_PARAVIEW|        50|
|                      CSV|        50|
|              SURFACE_CSV|        50|
+------------------------------------+
Writing the convergence history file every 1 inner iterations.
Writing the screen convergence history every 10 inner iterations.
The tabular file format is CSV (.csv).
Convergence history file name: history_databladeVALIDATION_Blade_20.
Forces breakdown file name: forces_breakdown.dat.
Surface file name: surface_flowdatabladeVALIDATION_Blade_20.
Volume file name: volume_flow_databladeVALIDATION_Blade_20.
Restart file name: restart_flow_databladeVALIDATION_Blade_20.dat.

------------- Config File Boundary Information ( Zone 0 ) ---------------
+-----------------------------------------------------------------------+
|                        Marker Type|                        Marker Name|
+-----------------------------------------------------------------------+
|                  Periodic boundary|               symmetricWallsBOTTOM|
|                                   |                  symmetricWallsTOP|
+-----------------------------------------------------------------------+
|                     Inlet boundary|                              inlet|
+-----------------------------------------------------------------------+
|                    Outlet boundary|                             outlet|
+-----------------------------------------------------------------------+
|                     Heat flux wall|                             blade1|
|                                   |                             blade2|
+-----------------------------------------------------------------------+

-------------------- Output Preprocessing ( Zone 0 ) --------------------
  Info: Ignoring the following screen output fields:
  LINSOL_ITER_TRANS, LINSOL_RESIDUAL_TRANS
Screen output fields: INNER_ITER, CUR_TIME, RMS_DENSITY
  Info: Ignoring the following history output groups:
  RMS_TKE, RMS_DISSIPATION
History output group(s): INNER_ITER, WALL_TIME, RMS_DENSITY, RMS_MOMENTUM-X, RMS_ENERGY, LINSOL, CFL_NUMBER, FLOW_COEFF_SURF, AERO_COEFF_SURF
Convergence field(s): RMS_DENSITY
Warning: No (valid) fields chosen for time convergence monitoring. Time convergence monitoring inactive.
Volume output fields: COORDINATES, SOLUTION, PRIMITIVE, RESIDUAL, TIMESTEP, MESH_QUALITY, VORTEX_IDENTIFICATION

------------------- Geometry Preprocessing ( Zone 0 ) -------------------
Two dimensional problem.
58054 grid points before partitioning.
85730 volume elements before partitioning.
5 surface markers.
24 boundary elements in index 0 (Marker = inlet).
293 boundary elements in index 1 (Marker = symmetricWallsBOTTOM).
293 boundary elements in index 2 (Marker = symmetricWallsTOP).
24 boundary elements in index 3 (Marker = outlet).
1144 boundary elements in index 4 (Marker = blade1).
Executing the partitioning functions.
Building the graph adjacency structure.
Calling ParMETIS... graph partitioning complete (1375 edge cuts).
Distributing ParMETIS coloring.
Rebalancing vertices.
Rebalancing volume element connectivity.
Rebalancing markers and surface elements.
59804 vertices including ghost points. 
87094 interior elements including halo cells. 
58132 triangles.
28962 quadrilaterals.
Establishing MPI communication patterns.
Setting point connectivity.
Renumbering points (Reverse Cuthill McKee Ordering).
Recomputing point connectivity.
Setting element connectivity.
Checking the numerical grid orientation.
All volume elements are correctly orientend.
There has been a re-orientation of 901 LINE surface elements.
Identifying edges and vertices.
Setting the control volume structure.
Area of the computational grid: 3.14729.
Searching for the closest normal neighbors to the surfaces.
Storing a mapping from global to local point index.
Compute the surface curvature.
Max K: 117.739. Mean K: 4.11163. Standard deviation K: 13.5546.
Checking for periodicity.
WARNING: Periodicity has been detected. Disabling multigrid. 
Computing mesh quality statistics for the dual control volumes.
+--------------------------------------------------------------+
|           Mesh Quality Metric|        Minimum|        Maximum|
+--------------------------------------------------------------+
|    Orthogonality Angle (deg.)|        52.2773|             90|
|     CV Face Area Aspect Ratio|        1.00027|          289.2|
|           CV Sub-Volume Ratio|              1|        19.2463|
+--------------------------------------------------------------+
Finding max control volume width.
Communicating number of neighbors.
Reference length = 1.01517 m.
Wetted area = 2.81975 m.
Area projection in the x-plane = 0.860506 m, y-plane = 1.01517 m.
Max. coordinate in the x-direction = 1.01503 m, y-direction = 0.751932 m.
Min. coordinate in the x-direction = -0.000147085 m, y-direction = -0.108581 m.
Matching the periodic boundary points for marker pair 1.
 Matched 588 points with a max distance of: 1.78713e-13.
Computing wall distances.

-------------------- Solver Preprocessing ( Zone 0 ) --------------------
Viscous flow: Computing pressure using the ideal gas law
based on the free-stream temperature and a density computed
from the Reynolds number.
Force coefficients computed using free-stream values.

-- Models:
+------------------------------------------------------------------------------+
|          Viscosity Model|        Conductivity Model|              Fluid Model|
+------------------------------------------------------------------------------+
|               SUTHERLAND|          CONSTANT_PRANDTL|                IDEAL_GAS|
+------------------------------------------------------------------------------+
-- Fluid properties:
+------------------------------------------------------------------------------+
|                  Name|    Dim. value|    Ref. value|      Unit|Non-dim. value|
+------------------------------------------------------------------------------+
|        Ref. Viscosity|     1.716e-05|             1|   N.s/m^2|     1.716e-05|
|      Sutherland Temp.|        273.15|             1|         K|        273.15|
|     Sutherland Const.|         110.4|             1|         K|         110.4|
+------------------------------------------------------------------------------+
|        Prandtl (Lam.)|             -|             -|         -|          0.72|
|       Prandtl (Turb.)|             -|             -|         -|           0.9|
+------------------------------------------------------------------------------+
|          Gas Constant|       287.058|             1|  N.m/kg.K|       287.058|
|      Spec. Heat Ratio|             -|             -|         -|           1.4|
+------------------------------------------------------------------------------+
-- Initial and free-stream conditions:
+------------------------------------------------------------------------------+
|                  Name|    Dim. value|    Ref. value|      Unit|Non-dim. value|
+------------------------------------------------------------------------------+
|       Static Pressure|       4109.68|             1|        Pa|       4109.68|
|               Density|     0.0477218|             1|    kg/m^3|     0.0477218|
|           Temperature|           300|             1|         K|           300|
|          Total Energy|        242112|             1|   m^2/s^2|        242112|
|            Velocity-X|        230.33|             1|       m/s|        230.33|
|            Velocity-Y|      -24.2086|             1|       m/s|      -24.2086|
|    Velocity Magnitude|       231.598|             1|       m/s|       231.598|
+------------------------------------------------------------------------------+
|             Viscosity|   1.84592e-05|             1|   N.s/m^2|   1.84592e-05|
|          Conductivity|             -|             1|   W/m^2.K|             -|
|     Turb. Kin. Energy|       98.5594|             1|   m^2/s^2|       98.5594|
|     Spec. Dissipation|   2.54802e+06|             1|       1/s|   2.54802e+06|
+------------------------------------------------------------------------------+
|           Mach Number|             -|             -|         -|         0.667|
|       Reynolds Number|             -|             -|         -|        600000|
+------------------------------------------------------------------------------+
Initialize Jacobian structure (Navier-Stokes). MG level: 0.
Initialize Jacobian structure (SA model).

------------------- Numerics Preprocessing ( Zone 0 ) -------------------

----------------- Integration Preprocessing ( Zone 0 ) ------------------

------------------- Iteration Preprocessing ( Zone 0 ) ------------------
Euler/Navier-Stokes/RANS fluid iteration.

------------------------------ Begin Solver -----------------------------

Simulation Run using the Single-zone Driver
WARNING: SU2 was not compiled for an AVX-capable architecture. Performance could be better,
         see https://su2code.github.io/docs_v7/Build-SU2-Linux-MacOS/#compiler-optimizations
+--------------------------------------+
|  Inner_Iter|    Cur_Time|    rms[Rho]|
+--------------------------------------+
|           0|  0.0000e+00|   -2.549904|
|          10|  0.0000e+00|   -3.170251|
|          20|  0.0000e+00|   -2.998579|
|          30|  0.0000e+00|   -2.997326|
|          40|  0.0000e+00|   -2.867242|
|          50|  0.0000e+00|   -2.965628|
+-----------------------------------------------------------------------+
|        File Writing Summary       |              Filename             |
+-----------------------------------------------------------------------+
|SU2 binary restart                 |restart_flow_databladeVALIDATION_Blade_20.dat|
|                                   |                     (10366.7 MB/s)|
|Paraview                           |volume_flow_databladeVALIDATION_Blade_20.vtu|
|                                   |                     (960.446 MB/s)|
|Paraview surface                   |surface_flowdatabladeVALIDATION_Blade_20.vtu|
|                                   |                     (96.7187 MB/s)|
|SU2 ASCII restart                  |restart_flow_databladeVALIDATION_Blade_20.csv|
|                                   |                     (22.4645 MB/s)|
|CSV file                           |surface_flowdatabladeVALIDATION_Blade_20.csv|
|                                   |                     (20.4394 MB/s)|
+-----------------------------------------------------------------------+
+--------------------------------------+
|  Inner_Iter|    Cur_Time|    rms[Rho]|
+--------------------------------------+
|          60|  0.0000e+00|   -3.048007|
|          70|  0.0000e+00|   -3.101128|
|          80|  0.0000e+00|   -3.103295|
|          90|  0.0000e+00|   -2.949373|
|         100|  0.0000e+00|   -3.015462|
+-----------------------------------------------------------------------+
|        File Writing Summary       |              Filename             |
+-----------------------------------------------------------------------+
|SU2 binary restart                 |restart_flow_databladeVALIDATION_Blade_20.dat|
|                                   |                     (12373.6 MB/s)|
|Paraview                           |volume_flow_databladeVALIDATION_Blade_20.vtu|
|                                   |                     (1040.01 MB/s)|
|Paraview surface                   |surface_flowdatabladeVALIDATION_Blade_20.vtu|
|                                   |                     (99.8363 MB/s)|
|SU2 ASCII restart                  |restart_flow_databladeVALIDATION_Blade_20.csv|
|                                   |                     (22.0491 MB/s)|
|CSV file                           |surface_flowdatabladeVALIDATION_Blade_20.csv|
|                                   |                      (19.676 MB/s)|
+-----------------------------------------------------------------------+
+--------------------------------------+
|  Inner_Iter|    Cur_Time|    rms[Rho]|
+--------------------------------------+
|         110|  0.0000e+00|   -3.073529|
|         120|  0.0000e+00|   -3.068112|
|         130|  0.0000e+00|   -3.074938|
|         140|  0.0000e+00|   -3.103440|
|         150|  0.0000e+00|   -3.047877|
+-----------------------------------------------------------------------+
|        File Writing Summary       |              Filename             |
+-----------------------------------------------------------------------+
|SU2 binary restart                 |restart_flow_databladeVALIDATION_Blade_20.dat|
|                                   |                     (11837.9 MB/s)|
|Paraview                           |volume_flow_databladeVALIDATION_Blade_20.vtu|
|                                   |                      (1056.4 MB/s)|
|Paraview surface                   |surface_flowdatabladeVALIDATION_Blade_20.vtu|
|                                   |                     (95.4142 MB/s)|
|SU2 ASCII restart                  |restart_flow_databladeVALIDATION_Blade_20.csv|
|                                   |                     (22.2077 MB/s)|
|CSV file                           |surface_flowdatabladeVALIDATION_Blade_20.csv|
|                                   |                     (21.6342 MB/s)|
+-----------------------------------------------------------------------+
+--------------------------------------+
|  Inner_Iter|    Cur_Time|    rms[Rho]|
+--------------------------------------+
|         160|  0.0000e+00|   -3.021003|
|         170|  0.0000e+00|   -3.061828|
|         180|  0.0000e+00|   -3.074301|
|         190|  0.0000e+00|   -3.086432|
|         200|  0.0000e+00|   -3.072457|
+-----------------------------------------------------------------------+
|        File Writing Summary       |              Filename             |
+-----------------------------------------------------------------------+
|SU2 binary restart                 |restart_flow_databladeVALIDATION_Blade_20.dat|
|                                   |                     (12425.7 MB/s)|
|Paraview                           |volume_flow_databladeVALIDATION_Blade_20.vtu|
|                                   |                     (1059.26 MB/s)|
|Paraview surface                   |surface_flowdatabladeVALIDATION_Blade_20.vtu|
|                                   |                     (117.755 MB/s)|
|SU2 ASCII restart                  |restart_flow_databladeVALIDATION_Blade_20.csv|
|                                   |                     (22.2092 MB/s)|
|CSV file                           |surface_flowdatabladeVALIDATION_Blade_20.csv|
|                                   |                     (22.5382 MB/s)|
+-----------------------------------------------------------------------+
+--------------------------------------+
|  Inner_Iter|    Cur_Time|    rms[Rho]|
+--------------------------------------+
|         210|  0.0000e+00|   -3.196329|
|         220|  0.0000e+00|   -3.209258|
|         230|  0.0000e+00|   -3.136952|
|         240|  0.0000e+00|   -3.200120|
|         250|  0.0000e+00|   -3.223782|
+-----------------------------------------------------------------------+
|        File Writing Summary       |              Filename             |
+-----------------------------------------------------------------------+
|SU2 binary restart                 |restart_flow_databladeVALIDATION_Blade_20.dat|
|                                   |                     (6566.31 MB/s)|
|Paraview                           |volume_flow_databladeVALIDATION_Blade_20.vtu|
|                                   |                     (997.456 MB/s)|
|Paraview surface                   |surface_flowdatabladeVALIDATION_Blade_20.vtu|
|                                   |                     (87.8338 MB/s)|
|SU2 ASCII restart                  |restart_flow_databladeVALIDATION_Blade_20.csv|
|                                   |                     (21.6861 MB/s)|
|CSV file                           |surface_flowdatabladeVALIDATION_Blade_20.csv|
|                                   |                      (21.904 MB/s)|
+-----------------------------------------------------------------------+
+--------------------------------------+
|  Inner_Iter|    Cur_Time|    rms[Rho]|
+--------------------------------------+
|         260|  0.0000e+00|   -3.245226|
|         270|  0.0000e+00|   -3.236945|
|         280|  0.0000e+00|   -3.295581|
|         290|  0.0000e+00|   -3.298367|
|         300|  0.0000e+00|   -3.273754|
+-----------------------------------------------------------------------+
|        File Writing Summary       |              Filename             |
+-----------------------------------------------------------------------+
|SU2 binary restart                 |restart_flow_databladeVALIDATION_Blade_20.dat|
|                                   |                     (12409.6 MB/s)|
|Paraview                           |volume_flow_databladeVALIDATION_Blade_20.vtu|
|                                   |                      (1037.6 MB/s)|
|Paraview surface                   |surface_flowdatabladeVALIDATION_Blade_20.vtu|
|                                   |                      (126.66 MB/s)|
|SU2 ASCII restart                  |restart_flow_databladeVALIDATION_Blade_20.csv|
|                                   |                     (22.4452 MB/s)|
|CSV file                           |surface_flowdatabladeVALIDATION_Blade_20.csv|
|                                   |                     (21.7002 MB/s)|
+-----------------------------------------------------------------------+
+--------------------------------------+
|  Inner_Iter|    Cur_Time|    rms[Rho]|
+--------------------------------------+
|         310|  0.0000e+00|   -3.321455|
|         320|  0.0000e+00|   -3.360738|
|         330|  0.0000e+00|   -3.427212|
|         340|  0.0000e+00|   -3.463368|
|         350|  0.0000e+00|   -3.471132|
+-----------------------------------------------------------------------+
|        File Writing Summary       |              Filename             |
+-----------------------------------------------------------------------+
|SU2 binary restart                 |restart_flow_databladeVALIDATION_Blade_20.dat|
|                                   |                     (14545.4 MB/s)|
|Paraview                           |volume_flow_databladeVALIDATION_Blade_20.vtu|
|                                   |                     (983.634 MB/s)|
|Paraview surface                   |surface_flowdatabladeVALIDATION_Blade_20.vtu|
|                                   |                     (102.471 MB/s)|
|SU2 ASCII restart                  |restart_flow_databladeVALIDATION_Blade_20.csv|
|                                   |                     (22.1014 MB/s)|
|CSV file                           |surface_flowdatabladeVALIDATION_Blade_20.csv|
|                                   |                     (22.3935 MB/s)|
+-----------------------------------------------------------------------+
+--------------------------------------+
|  Inner_Iter|    Cur_Time|    rms[Rho]|
+--------------------------------------+
|         360|  0.0000e+00|   -3.487041|
|         370|  0.0000e+00|   -3.542124|
|         380|  0.0000e+00|   -3.488574|
|         390|  0.0000e+00|   -3.508211|
|         400|  0.0000e+00|   -3.607105|
+-----------------------------------------------------------------------+
|        File Writing Summary       |              Filename             |
+-----------------------------------------------------------------------+
|SU2 binary restart                 |restart_flow_databladeVALIDATION_Blade_20.dat|
|                                   |                     (12626.2 MB/s)|
|Paraview                           |volume_flow_databladeVALIDATION_Blade_20.vtu|
|                                   |                     (1019.79 MB/s)|
|Paraview surface                   |surface_flowdatabladeVALIDATION_Blade_20.vtu|
|                                   |                     (125.573 MB/s)|
|SU2 ASCII restart                  |restart_flow_databladeVALIDATION_Blade_20.csv|
|                                   |                     (22.0595 MB/s)|
|CSV file                           |surface_flowdatabladeVALIDATION_Blade_20.csv|
|                                   |                     (21.6595 MB/s)|
+-----------------------------------------------------------------------+
+--------------------------------------+
|  Inner_Iter|    Cur_Time|    rms[Rho]|
+--------------------------------------+
|         410|  0.0000e+00|   -3.496093|
|         420|  0.0000e+00|   -3.527999|
|         430|  0.0000e+00|   -3.618038|
|         440|  0.0000e+00|   -3.656890|
|         450|  0.0000e+00|   -3.633012|
+-----------------------------------------------------------------------+
|        File Writing Summary       |              Filename             |
+-----------------------------------------------------------------------+
|SU2 binary restart                 |restart_flow_databladeVALIDATION_Blade_20.dat|
|                                   |                     (11288.2 MB/s)|
|Paraview                           |volume_flow_databladeVALIDATION_Blade_20.vtu|
|                                   |                     (1051.46 MB/s)|
|Paraview surface                   |surface_flowdatabladeVALIDATION_Blade_20.vtu|
|                                   |                     (104.754 MB/s)|
|SU2 ASCII restart                  |restart_flow_databladeVALIDATION_Blade_20.csv|
|                                   |                     (22.0946 MB/s)|
|CSV file                           |surface_flowdatabladeVALIDATION_Blade_20.csv|
|                                   |                     (21.7029 MB/s)|
+-----------------------------------------------------------------------+
+--------------------------------------+
|  Inner_Iter|    Cur_Time|    rms[Rho]|
+--------------------------------------+
|         460|  0.0000e+00|   -3.702190|
|         470|  0.0000e+00|   -3.743925|
|         480|  0.0000e+00|   -3.778077|
|         490|  0.0000e+00|   -3.730211|
|         500|  0.0000e+00|   -3.791170|
+-----------------------------------------------------------------------+
|        File Writing Summary       |              Filename             |
+-----------------------------------------------------------------------+
|SU2 binary restart                 |restart_flow_databladeVALIDATION_Blade_20.dat|
|                                   |                     (9654.81 MB/s)|
|Paraview                           |volume_flow_databladeVALIDATION_Blade_20.vtu|
|                                   |                     (1112.21 MB/s)|
|Paraview surface                   |surface_flowdatabladeVALIDATION_Blade_20.vtu|
|                                   |                     (79.1629 MB/s)|
|SU2 ASCII restart                  |restart_flow_databladeVALIDATION_Blade_20.csv|
|                                   |                     (22.5143 MB/s)|
|CSV file                           |surface_flowdatabladeVALIDATION_Blade_20.csv|
|                                   |                     (20.2157 MB/s)|
+-----------------------------------------------------------------------+
+--------------------------------------+
|  Inner_Iter|    Cur_Time|    rms[Rho]|
+--------------------------------------+
|         510|  0.0000e+00|   -3.797620|
|         520|  0.0000e+00|   -3.799808|
|         530|  0.0000e+00|   -3.787214|
|         540|  0.0000e+00|   -3.862327|
|         550|  0.0000e+00|   -3.881063|
+-----------------------------------------------------------------------+
|        File Writing Summary       |              Filename             |
+-----------------------------------------------------------------------+
|SU2 binary restart                 |restart_flow_databladeVALIDATION_Blade_20.dat|
|                                   |                     (12466.1 MB/s)|
|Paraview                           |volume_flow_databladeVALIDATION_Blade_20.vtu|
|                                   |                     (1108.01 MB/s)|
|Paraview surface                   |surface_flowdatabladeVALIDATION_Blade_20.vtu|
|                                   |                      (105.39 MB/s)|
|SU2 ASCII restart                  |restart_flow_databladeVALIDATION_Blade_20.csv|
|                                   |                     (21.7674 MB/s)|
|CSV file                           |surface_flowdatabladeVALIDATION_Blade_20.csv|
|                                   |                     (21.0768 MB/s)|
+-----------------------------------------------------------------------+
+--------------------------------------+
|  Inner_Iter|    Cur_Time|    rms[Rho]|
+--------------------------------------+
|         560|  0.0000e+00|   -3.876558|
|         570|  0.0000e+00|   -3.902793|
|         580|  0.0000e+00|   -3.935096|
|         590|  0.0000e+00|   -3.960450|
|         600|  0.0000e+00|   -3.975124|
+-----------------------------------------------------------------------+
|        File Writing Summary       |              Filename             |
+-----------------------------------------------------------------------+
|SU2 binary restart                 |restart_flow_databladeVALIDATION_Blade_20.dat|
|                                   |                     (11633.2 MB/s)|
|Paraview                           |volume_flow_databladeVALIDATION_Blade_20.vtu|
|                                   |                     (1097.43 MB/s)|
|Paraview surface                   |surface_flowdatabladeVALIDATION_Blade_20.vtu|
|                                   |                     (97.7728 MB/s)|
|SU2 ASCII restart                  |restart_flow_databladeVALIDATION_Blade_20.csv|
|                                   |                     (22.0225 MB/s)|
|CSV file                           |surface_flowdatabladeVALIDATION_Blade_20.csv|
|                                   |                     (21.8368 MB/s)|
+-----------------------------------------------------------------------+
+--------------------------------------+
|  Inner_Iter|    Cur_Time|    rms[Rho]|
+--------------------------------------+
|         610|  0.0000e+00|   -4.036777|
|         620|  0.0000e+00|   -4.052221|
|         630|  0.0000e+00|   -3.991783|
|         640|  0.0000e+00|   -4.055344|
|         650|  0.0000e+00|   -4.057086|
+-----------------------------------------------------------------------+
|        File Writing Summary       |              Filename             |
+-----------------------------------------------------------------------+
|SU2 binary restart                 |restart_flow_databladeVALIDATION_Blade_20.dat|
|                                   |                     (12658.5 MB/s)|
|Paraview                           |volume_flow_databladeVALIDATION_Blade_20.vtu|
|                                   |                     (1006.69 MB/s)|
|Paraview surface                   |surface_flowdatabladeVALIDATION_Blade_20.vtu|
|                                   |                     (88.6115 MB/s)|
|SU2 ASCII restart                  |restart_flow_databladeVALIDATION_Blade_20.csv|
|                                   |                     (22.2201 MB/s)|
|CSV file                           |surface_flowdatabladeVALIDATION_Blade_20.csv|
|                                   |                     (21.3184 MB/s)|
+-----------------------------------------------------------------------+
+--------------------------------------+
|  Inner_Iter|    Cur_Time|    rms[Rho]|
+--------------------------------------+
|         660|  0.0000e+00|   -4.061041|
|         670|  0.0000e+00|   -4.033913|
|         680|  0.0000e+00|   -4.112687|
|         690|  0.0000e+00|   -4.134823|
|         700|  0.0000e+00|   -4.096933|
+-----------------------------------------------------------------------+
|        File Writing Summary       |              Filename             |
+-----------------------------------------------------------------------+
|SU2 binary restart                 |restart_flow_databladeVALIDATION_Blade_20.dat|
|                                   |                     (12652.2 MB/s)|
|Paraview                           |volume_flow_databladeVALIDATION_Blade_20.vtu|
|                                   |                     (1094.79 MB/s)|
|Paraview surface                   |surface_flowdatabladeVALIDATION_Blade_20.vtu|
|                                   |                     (104.613 MB/s)|
|SU2 ASCII restart                  |restart_flow_databladeVALIDATION_Blade_20.csv|
|                                   |                     (22.1422 MB/s)|
|CSV file                           |surface_flowdatabladeVALIDATION_Blade_20.csv|
|                                   |                      (22.133 MB/s)|
+-----------------------------------------------------------------------+
+--------------------------------------+
|  Inner_Iter|    Cur_Time|    rms[Rho]|
+--------------------------------------+
|         710|  0.0000e+00|   -4.158815|
|         720|  0.0000e+00|   -4.161818|
|         730|  0.0000e+00|   -4.175963|
|         740|  0.0000e+00|   -4.204984|
|         750|  0.0000e+00|   -4.244366|
+-----------------------------------------------------------------------+
|        File Writing Summary       |              Filename             |
+-----------------------------------------------------------------------+
|SU2 binary restart                 |restart_flow_databladeVALIDATION_Blade_20.dat|
|                                   |                     (12617.9 MB/s)|
|Paraview                           |volume_flow_databladeVALIDATION_Blade_20.vtu|
|                                   |                      (1056.9 MB/s)|
|Paraview surface                   |surface_flowdatabladeVALIDATION_Blade_20.vtu|
|                                   |                     (103.728 MB/s)|
|SU2 ASCII restart                  |restart_flow_databladeVALIDATION_Blade_20.csv|
|                                   |                     (21.8922 MB/s)|
|CSV file                           |surface_flowdatabladeVALIDATION_Blade_20.csv|
|                                   |                     (21.8096 MB/s)|
+-----------------------------------------------------------------------+
+--------------------------------------+
|  Inner_Iter|    Cur_Time|    rms[Rho]|
+--------------------------------------+
|         760|  0.0000e+00|   -4.255192|
|         770|  0.0000e+00|   -4.234954|
|         780|  0.0000e+00|   -4.270305|
|         790|  0.0000e+00|   -4.285245|
|         800|  0.0000e+00|   -4.282034|
+-----------------------------------------------------------------------+
|        File Writing Summary       |              Filename             |
+-----------------------------------------------------------------------+
|SU2 binary restart                 |restart_flow_databladeVALIDATION_Blade_20.dat|
|                                   |                     (3370.44 MB/s)|
|Paraview                           |volume_flow_databladeVALIDATION_Blade_20.vtu|
|                                   |                     (985.965 MB/s)|
|Paraview surface                   |surface_flowdatabladeVALIDATION_Blade_20.vtu|
|                                   |                     (103.623 MB/s)|
|SU2 ASCII restart                  |restart_flow_databladeVALIDATION_Blade_20.csv|
|                                   |                     (21.8694 MB/s)|
|CSV file                           |surface_flowdatabladeVALIDATION_Blade_20.csv|
|                                   |                     (21.9841 MB/s)|
+-----------------------------------------------------------------------+
+--------------------------------------+
|  Inner_Iter|    Cur_Time|    rms[Rho]|
+--------------------------------------+
|         810|  0.0000e+00|   -4.257172|
|         820|  0.0000e+00|   -4.325290|
|         830|  0.0000e+00|   -4.335512|
|         840|  0.0000e+00|   -4.329074|
|         850|  0.0000e+00|   -4.341970|
+-----------------------------------------------------------------------+
|        File Writing Summary       |              Filename             |
+-----------------------------------------------------------------------+
|SU2 binary restart                 |restart_flow_databladeVALIDATION_Blade_20.dat|
|                                   |                     (12603.4 MB/s)|
|Paraview                           |volume_flow_databladeVALIDATION_Blade_20.vtu|
|                                   |                     (1069.59 MB/s)|
|Paraview surface                   |surface_flowdatabladeVALIDATION_Blade_20.vtu|
|                                   |                     (105.566 MB/s)|
|SU2 ASCII restart                  |restart_flow_databladeVALIDATION_Blade_20.csv|
|                                   |                     (21.7226 MB/s)|
|CSV file                           |surface_flowdatabladeVALIDATION_Blade_20.csv|
|                                   |                     (21.9091 MB/s)|
+-----------------------------------------------------------------------+
+--------------------------------------+
|  Inner_Iter|    Cur_Time|    rms[Rho]|
+--------------------------------------+
|         860|  0.0000e+00|   -4.392254|
|         870|  0.0000e+00|   -4.404363|
|         880|  0.0000e+00|   -4.366250|
|         890|  0.0000e+00|   -4.402298|
|         900|  0.0000e+00|   -4.437165|
+-----------------------------------------------------------------------+
|        File Writing Summary       |              Filename             |
+-----------------------------------------------------------------------+
|SU2 binary restart                 |restart_flow_databladeVALIDATION_Blade_20.dat|
|                                   |                     (4760.73 MB/s)|
|Paraview                           |volume_flow_databladeVALIDATION_Blade_20.vtu|
|                                   |                     (1009.43 MB/s)|
|Paraview surface                   |surface_flowdatabladeVALIDATION_Blade_20.vtu|
|                                   |                     (97.2368 MB/s)|
|SU2 ASCII restart                  |restart_flow_databladeVALIDATION_Blade_20.csv|
|                                   |                     (22.1586 MB/s)|
|CSV file                           |surface_flowdatabladeVALIDATION_Blade_20.csv|
|                                   |                     (20.2527 MB/s)|
+-----------------------------------------------------------------------+
+--------------------------------------+
|  Inner_Iter|    Cur_Time|    rms[Rho]|
+--------------------------------------+
|         910|  0.0000e+00|   -4.438281|
|         920|  0.0000e+00|   -4.431502|
|         930|  0.0000e+00|   -4.476672|
|         940|  0.0000e+00|   -4.469837|
|         950|  0.0000e+00|   -4.494573|
+-----------------------------------------------------------------------+
|        File Writing Summary       |              Filename             |
+-----------------------------------------------------------------------+
|SU2 binary restart                 |restart_flow_databladeVALIDATION_Blade_20.dat|
|                                   |                     (9747.45 MB/s)|
|Paraview                           |volume_flow_databladeVALIDATION_Blade_20.vtu|
|                                   |                     (922.851 MB/s)|
|Paraview surface                   |surface_flowdatabladeVALIDATION_Blade_20.vtu|
|                                   |                     (98.8834 MB/s)|
|SU2 ASCII restart                  |restart_flow_databladeVALIDATION_Blade_20.csv|
|                                   |                     (22.0155 MB/s)|
|CSV file                           |surface_flowdatabladeVALIDATION_Blade_20.csv|
|                                   |                     (21.6599 MB/s)|
+-----------------------------------------------------------------------+
+--------------------------------------+
|  Inner_Iter|    Cur_Time|    rms[Rho]|
+--------------------------------------+
|         960|  0.0000e+00|   -4.541117|
|         970|  0.0000e+00|   -4.590013|
|         980|  0.0000e+00|   -4.633782|
|         990|  0.0000e+00|   -4.639635|
|        1000|  0.0000e+00|   -4.638435|
+-----------------------------------------------------------------------+
|        File Writing Summary       |              Filename             |
+-----------------------------------------------------------------------+
|SU2 binary restart                 |restart_flow_databladeVALIDATION_Blade_20.dat|
|                                   |                     (12618.9 MB/s)|
|Paraview                           |volume_flow_databladeVALIDATION_Blade_20.vtu|
|                                   |                      (1114.7 MB/s)|
|Paraview surface                   |surface_flowdatabladeVALIDATION_Blade_20.vtu|
|                                   |                     (107.896 MB/s)|
|SU2 ASCII restart                  |restart_flow_databladeVALIDATION_Blade_20.csv|
|                                   |                     (21.9749 MB/s)|
|CSV file                           |surface_flowdatabladeVALIDATION_Blade_20.csv|
|                                   |                     (21.9258 MB/s)|
+-----------------------------------------------------------------------+
+--------------------------------------+
|  Inner_Iter|    Cur_Time|    rms[Rho]|
+--------------------------------------+
|        1010|  0.0000e+00|   -4.681100|
|        1020|  0.0000e+00|   -4.688620|
|        1030|  0.0000e+00|   -4.669828|
|        1040|  0.0000e+00|   -4.716773|
|        1050|  0.0000e+00|   -4.716199|
+-----------------------------------------------------------------------+
|        File Writing Summary       |              Filename             |
+-----------------------------------------------------------------------+
|SU2 binary restart                 |restart_flow_databladeVALIDATION_Blade_20.dat|
|                                   |                     (13686.3 MB/s)|
|Paraview                           |volume_flow_databladeVALIDATION_Blade_20.vtu|
|                                   |                     (1101.07 MB/s)|
|Paraview surface                   |surface_flowdatabladeVALIDATION_Blade_20.vtu|
|                                   |                     (102.912 MB/s)|
|SU2 ASCII restart                  |restart_flow_databladeVALIDATION_Blade_20.csv|
|                                   |                     (21.7525 MB/s)|
|CSV file                           |surface_flowdatabladeVALIDATION_Blade_20.csv|
|                                   |                     (22.1386 MB/s)|
+-----------------------------------------------------------------------+
+--------------------------------------+
|  Inner_Iter|    Cur_Time|    rms[Rho]|
+--------------------------------------+
|        1060|  0.0000e+00|   -4.698543|
|        1070|  0.0000e+00|   -4.723420|
|        1080|  0.0000e+00|   -4.713251|
|        1090|  0.0000e+00|   -4.757809|
|        1100|  0.0000e+00|   -4.751576|
+-----------------------------------------------------------------------+
|        File Writing Summary       |              Filename             |
+-----------------------------------------------------------------------+
|SU2 binary restart                 |restart_flow_databladeVALIDATION_Blade_20.dat|
|                                   |                     (12618.9 MB/s)|
|Paraview                           |volume_flow_databladeVALIDATION_Blade_20.vtu|
|                                   |                     (1038.83 MB/s)|
|Paraview surface                   |surface_flowdatabladeVALIDATION_Blade_20.vtu|
|                                   |                     (106.774 MB/s)|
|SU2 ASCII restart                  |restart_flow_databladeVALIDATION_Blade_20.csv|
|                                   |                      (22.092 MB/s)|
|CSV file                           |surface_flowdatabladeVALIDATION_Blade_20.csv|
|                                   |                     (20.4062 MB/s)|
+-----------------------------------------------------------------------+
+--------------------------------------+
|  Inner_Iter|    Cur_Time|    rms[Rho]|
+--------------------------------------+
|        1110|  0.0000e+00|   -4.762633|
|        1120|  0.0000e+00|   -4.785590|
|        1130|  0.0000e+00|   -4.758658|
|        1140|  0.0000e+00|   -4.795070|
|        1150|  0.0000e+00|   -4.802370|
+-----------------------------------------------------------------------+
|        File Writing Summary       |              Filename             |
+-----------------------------------------------------------------------+
|SU2 binary restart                 |restart_flow_databladeVALIDATION_Blade_20.dat|
|                                   |                     (12362.6 MB/s)|
|Paraview                           |volume_flow_databladeVALIDATION_Blade_20.vtu|
|                                   |                     (1079.47 MB/s)|
|Paraview surface                   |surface_flowdatabladeVALIDATION_Blade_20.vtu|
|                                   |                     (104.111 MB/s)|
|SU2 ASCII restart                  |restart_flow_databladeVALIDATION_Blade_20.csv|
|                                   |                     (21.9809 MB/s)|
|CSV file                           |surface_flowdatabladeVALIDATION_Blade_20.csv|
|                                   |                     (21.8929 MB/s)|
+-----------------------------------------------------------------------+
+--------------------------------------+
|  Inner_Iter|    Cur_Time|    rms[Rho]|
+--------------------------------------+
|        1160|  0.0000e+00|   -4.788544|
|        1170|  0.0000e+00|   -4.779508|
|        1180|  0.0000e+00|   -4.797562|
|        1190|  0.0000e+00|   -4.820771|
|        1200|  0.0000e+00|   -4.851091|
+-----------------------------------------------------------------------+
|        File Writing Summary       |              Filename             |
+-----------------------------------------------------------------------+
|SU2 binary restart                 |restart_flow_databladeVALIDATION_Blade_20.dat|
|                                   |                     (11575.3 MB/s)|
|Paraview                           |volume_flow_databladeVALIDATION_Blade_20.vtu|
|                                   |                     (1097.54 MB/s)|
|Paraview surface                   |surface_flowdatabladeVALIDATION_Blade_20.vtu|
|                                   |                     (133.021 MB/s)|
|SU2 ASCII restart                  |restart_flow_databladeVALIDATION_Blade_20.csv|
|                                   |                     (21.5569 MB/s)|
|CSV file                           |surface_flowdatabladeVALIDATION_Blade_20.csv|
|                                   |                     (21.0363 MB/s)|
+-----------------------------------------------------------------------+
+--------------------------------------+
|  Inner_Iter|    Cur_Time|    rms[Rho]|
+--------------------------------------+
|        1210|  0.0000e+00|   -4.871902|
|        1220|  0.0000e+00|   -4.870194|
|        1230|  0.0000e+00|   -4.858833|
|        1240|  0.0000e+00|   -4.889824|
|        1250|  0.0000e+00|   -4.904797|
+-----------------------------------------------------------------------+
|        File Writing Summary       |              Filename             |
+-----------------------------------------------------------------------+
|SU2 binary restart                 |restart_flow_databladeVALIDATION_Blade_20.dat|
|                                   |                     (12333.8 MB/s)|
|Paraview                           |volume_flow_databladeVALIDATION_Blade_20.vtu|
|                                   |                     (1054.88 MB/s)|
|Paraview surface                   |surface_flowdatabladeVALIDATION_Blade_20.vtu|
|                                   |                     (106.808 MB/s)|
|SU2 ASCII restart                  |restart_flow_databladeVALIDATION_Blade_20.csv|
|                                   |                     (22.3604 MB/s)|
|CSV file                           |surface_flowdatabladeVALIDATION_Blade_20.csv|
|                                   |                     (19.6816 MB/s)|
+-----------------------------------------------------------------------+
+--------------------------------------+
|  Inner_Iter|    Cur_Time|    rms[Rho]|
+--------------------------------------+
|        1260|  0.0000e+00|   -4.877546|
|        1270|  0.0000e+00|   -4.868985|
|        1280|  0.0000e+00|   -4.900451|
|        1290|  0.0000e+00|   -4.903158|
|        1300|  0.0000e+00|   -4.880731|
+-----------------------------------------------------------------------+
|        File Writing Summary       |              Filename             |
+-----------------------------------------------------------------------+
|SU2 binary restart                 |restart_flow_databladeVALIDATION_Blade_20.dat|
|                                   |                     (12861.2 MB/s)|
|Paraview                           |volume_flow_databladeVALIDATION_Blade_20.vtu|
|                                   |                     (1059.33 MB/s)|
|Paraview surface                   |surface_flowdatabladeVALIDATION_Blade_20.vtu|
|                                   |                     (102.871 MB/s)|
|SU2 ASCII restart                  |restart_flow_databladeVALIDATION_Blade_20.csv|
|                                   |                     (21.8586 MB/s)|
|CSV file                           |surface_flowdatabladeVALIDATION_Blade_20.csv|
|                                   |                     (20.9445 MB/s)|
+-----------------------------------------------------------------------+
+--------------------------------------+
|  Inner_Iter|    Cur_Time|    rms[Rho]|
+--------------------------------------+
|        1310|  0.0000e+00|   -4.927304|
|        1320|  0.0000e+00|   -4.958782|
|        1330|  0.0000e+00|   -4.957905|
|        1340|  0.0000e+00|   -4.911052|
|        1350|  0.0000e+00|   -4.926606|
+-----------------------------------------------------------------------+
|        File Writing Summary       |              Filename             |
+-----------------------------------------------------------------------+
|SU2 binary restart                 |restart_flow_databladeVALIDATION_Blade_20.dat|
|                                   |                     (12098.4 MB/s)|
|Paraview                           |volume_flow_databladeVALIDATION_Blade_20.vtu|
|                                   |                     (1020.78 MB/s)|
|Paraview surface                   |surface_flowdatabladeVALIDATION_Blade_20.vtu|
|                                   |                     (103.107 MB/s)|
|SU2 ASCII restart                  |restart_flow_databladeVALIDATION_Blade_20.csv|
|                                   |                     (21.6404 MB/s)|
|CSV file                           |surface_flowdatabladeVALIDATION_Blade_20.csv|
|                                   |                     (20.2631 MB/s)|
+-----------------------------------------------------------------------+
+--------------------------------------+
|  Inner_Iter|    Cur_Time|    rms[Rho]|
+--------------------------------------+
|        1360|  0.0000e+00|   -4.954900|
|        1370|  0.0000e+00|   -4.979346|
|        1380|  0.0000e+00|   -4.996469|
|        1390|  0.0000e+00|   -5.012056|
|        1400|  0.0000e+00|   -5.026478|
+-----------------------------------------------------------------------+
|        File Writing Summary       |              Filename             |
+-----------------------------------------------------------------------+
|SU2 binary restart                 |restart_flow_databladeVALIDATION_Blade_20.dat|
|                                   |                     (11925.3 MB/s)|
|Paraview                           |volume_flow_databladeVALIDATION_Blade_20.vtu|
|                                   |                     (1106.56 MB/s)|
|Paraview surface                   |surface_flowdatabladeVALIDATION_Blade_20.vtu|
|                                   |                      (138.48 MB/s)|
|SU2 ASCII restart                  |restart_flow_databladeVALIDATION_Blade_20.csv|
|                                   |                     (21.9177 MB/s)|
|CSV file                           |surface_flowdatabladeVALIDATION_Blade_20.csv|
|                                   |                     (21.4309 MB/s)|
+-----------------------------------------------------------------------+
+--------------------------------------+
|  Inner_Iter|    Cur_Time|    rms[Rho]|
+--------------------------------------+
|        1410|  0.0000e+00|   -5.062292|
|        1420|  0.0000e+00|   -5.111707|
|        1430|  0.0000e+00|   -5.183083|
|        1440|  0.0000e+00|   -5.161990|
|        1450|  0.0000e+00|   -5.163351|
+-----------------------------------------------------------------------+
|        File Writing Summary       |              Filename             |
+-----------------------------------------------------------------------+
|SU2 binary restart                 |restart_flow_databladeVALIDATION_Blade_20.dat|
|                                   |                     (12819.3 MB/s)|
|Paraview                           |volume_flow_databladeVALIDATION_Blade_20.vtu|
|                                   |                     (1048.36 MB/s)|
|Paraview surface                   |surface_flowdatabladeVALIDATION_Blade_20.vtu|
|                                   |                     (95.7145 MB/s)|
|SU2 ASCII restart                  |restart_flow_databladeVALIDATION_Blade_20.csv|
|                                   |                     (22.2721 MB/s)|
|CSV file                           |surface_flowdatabladeVALIDATION_Blade_20.csv|
|                                   |                      (20.877 MB/s)|
+-----------------------------------------------------------------------+
+--------------------------------------+
|  Inner_Iter|    Cur_Time|    rms[Rho]|
+--------------------------------------+
|        1460|  0.0000e+00|   -5.188597|
|        1470|  0.0000e+00|   -5.179006|
|        1480|  0.0000e+00|   -5.146304|
|        1490|  0.0000e+00|   -5.198454|
|        1500|  0.0000e+00|   -5.189574|
+-----------------------------------------------------------------------+
|        File Writing Summary       |              Filename             |
+-----------------------------------------------------------------------+
|SU2 binary restart                 |restart_flow_databladeVALIDATION_Blade_20.dat|
|                                   |                     (12241.3 MB/s)|
|Paraview                           |volume_flow_databladeVALIDATION_Blade_20.vtu|
|                                   |                     (1112.65 MB/s)|
|Paraview surface                   |surface_flowdatabladeVALIDATION_Blade_20.vtu|
|                                   |                     (101.174 MB/s)|
|SU2 ASCII restart                  |restart_flow_databladeVALIDATION_Blade_20.csv|
|                                   |                     (21.0772 MB/s)|
|CSV file                           |surface_flowdatabladeVALIDATION_Blade_20.csv|
|                                   |                      (21.392 MB/s)|
+-----------------------------------------------------------------------+
+--------------------------------------+
|  Inner_Iter|    Cur_Time|    rms[Rho]|
+--------------------------------------+
|        1510|  0.0000e+00|   -5.176785|
|        1520|  0.0000e+00|   -5.225886|
|        1530|  0.0000e+00|   -5.228860|
|        1540|  0.0000e+00|   -5.187734|
|        1550|  0.0000e+00|   -5.235572|
+-----------------------------------------------------------------------+
|        File Writing Summary       |              Filename             |
+-----------------------------------------------------------------------+
|SU2 binary restart                 |restart_flow_databladeVALIDATION_Blade_20.dat|
|                                   |                     (12046.1 MB/s)|
|Paraview                           |volume_flow_databladeVALIDATION_Blade_20.vtu|
|                                   |                     (1051.85 MB/s)|
|Paraview surface                   |surface_flowdatabladeVALIDATION_Blade_20.vtu|
|                                   |                     (103.485 MB/s)|
|SU2 ASCII restart                  |restart_flow_databladeVALIDATION_Blade_20.csv|
|                                   |                     (21.6865 MB/s)|
|CSV file                           |surface_flowdatabladeVALIDATION_Blade_20.csv|
|                                   |                     (20.8953 MB/s)|
+-----------------------------------------------------------------------+
+--------------------------------------+
|  Inner_Iter|    Cur_Time|    rms[Rho]|
+--------------------------------------+
|        1560|  0.0000e+00|   -5.288249|
|        1570|  0.0000e+00|   -5.293268|
|        1580|  0.0000e+00|   -5.249727|
|        1590|  0.0000e+00|   -5.310292|
|        1600|  0.0000e+00|   -5.309699|
+-----------------------------------------------------------------------+
|        File Writing Summary       |              Filename             |
+-----------------------------------------------------------------------+
|SU2 binary restart                 |restart_flow_databladeVALIDATION_Blade_20.dat|
|                                   |                     (12320.9 MB/s)|
|Paraview                           |volume_flow_databladeVALIDATION_Blade_20.vtu|
|                                   |                     (1058.26 MB/s)|
|Paraview surface                   |surface_flowdatabladeVALIDATION_Blade_20.vtu|
|                                   |                     (106.765 MB/s)|
|SU2 ASCII restart                  |restart_flow_databladeVALIDATION_Blade_20.csv|
|                                   |                     (21.7671 MB/s)|
|CSV file                           |surface_flowdatabladeVALIDATION_Blade_20.csv|
|                                   |                      (21.093 MB/s)|
+-----------------------------------------------------------------------+
+--------------------------------------+
|  Inner_Iter|    Cur_Time|    rms[Rho]|
+--------------------------------------+
|        1610|  0.0000e+00|   -5.286855|
|        1620|  0.0000e+00|   -5.275921|
|        1630|  0.0000e+00|   -5.330947|
|        1640|  0.0000e+00|   -5.336621|
|        1650|  0.0000e+00|   -5.324512|
+-----------------------------------------------------------------------+
|        File Writing Summary       |              Filename             |
+-----------------------------------------------------------------------+
|SU2 binary restart                 |restart_flow_databladeVALIDATION_Blade_20.dat|
|                                   |                       (12454 MB/s)|
|Paraview                           |volume_flow_databladeVALIDATION_Blade_20.vtu|
|                                   |                     (1052.82 MB/s)|
|Paraview surface                   |surface_flowdatabladeVALIDATION_Blade_20.vtu|
|                                   |                     (102.899 MB/s)|
|SU2 ASCII restart                  |restart_flow_databladeVALIDATION_Blade_20.csv|
|                                   |                     (21.9552 MB/s)|
|CSV file                           |surface_flowdatabladeVALIDATION_Blade_20.csv|
|                                   |                      (21.271 MB/s)|
+-----------------------------------------------------------------------+
+--------------------------------------+
|  Inner_Iter|    Cur_Time|    rms[Rho]|
+--------------------------------------+
|        1660|  0.0000e+00|   -5.385600|
|        1670|  0.0000e+00|   -5.382708|
|        1680|  0.0000e+00|   -5.348630|
|        1690|  0.0000e+00|   -5.353160|
|        1700|  0.0000e+00|   -5.377976|
+-----------------------------------------------------------------------+
|        File Writing Summary       |              Filename             |
+-----------------------------------------------------------------------+
|SU2 binary restart                 |restart_flow_databladeVALIDATION_Blade_20.dat|
|                                   |                     (13699.7 MB/s)|
|Paraview                           |volume_flow_databladeVALIDATION_Blade_20.vtu|
|                                   |                     (1097.38 MB/s)|
|Paraview surface                   |surface_flowdatabladeVALIDATION_Blade_20.vtu|
|                                   |                     (103.184 MB/s)|
|SU2 ASCII restart                  |restart_flow_databladeVALIDATION_Blade_20.csv|
|                                   |                     (21.7024 MB/s)|
|CSV file                           |surface_flowdatabladeVALIDATION_Blade_20.csv|
|                                   |                     (21.5099 MB/s)|
+-----------------------------------------------------------------------+
+--------------------------------------+
|  Inner_Iter|    Cur_Time|    rms[Rho]|
+--------------------------------------+
|        1710|  0.0000e+00|   -5.377340|
|        1720|  0.0000e+00|   -5.351655|
|        1730|  0.0000e+00|   -5.397552|
|        1740|  0.0000e+00|   -5.404541|
|        1750|  0.0000e+00|   -5.402240|
+-----------------------------------------------------------------------+
|        File Writing Summary       |              Filename             |
+-----------------------------------------------------------------------+
|SU2 binary restart                 |restart_flow_databladeVALIDATION_Blade_20.dat|
|                                   |                       (12691 MB/s)|
|Paraview                           |volume_flow_databladeVALIDATION_Blade_20.vtu|
|                                   |                     (1071.09 MB/s)|
|Paraview surface                   |surface_flowdatabladeVALIDATION_Blade_20.vtu|
|                                   |                     (89.2125 MB/s)|
|SU2 ASCII restart                  |restart_flow_databladeVALIDATION_Blade_20.csv|
|                                   |                     (21.9063 MB/s)|
|CSV file                           |surface_flowdatabladeVALIDATION_Blade_20.csv|
|                                   |                     (20.5756 MB/s)|
+-----------------------------------------------------------------------+
+--------------------------------------+
|  Inner_Iter|    Cur_Time|    rms[Rho]|
+--------------------------------------+
|        1760|  0.0000e+00|   -5.443762|
|        1770|  0.0000e+00|   -5.439806|
|        1780|  0.0000e+00|   -5.385648|
|        1790|  0.0000e+00|   -5.459063|
|        1800|  0.0000e+00|   -5.474488|
+-----------------------------------------------------------------------+
|        File Writing Summary       |              Filename             |
+-----------------------------------------------------------------------+
|SU2 binary restart                 |restart_flow_databladeVALIDATION_Blade_20.dat|
|                                   |                     (12051.8 MB/s)|
|Paraview                           |volume_flow_databladeVALIDATION_Blade_20.vtu|
|                                   |                     (997.694 MB/s)|
|Paraview surface                   |surface_flowdatabladeVALIDATION_Blade_20.vtu|
|                                   |                     (105.618 MB/s)|
|SU2 ASCII restart                  |restart_flow_databladeVALIDATION_Blade_20.csv|
|                                   |                     (21.0292 MB/s)|
|CSV file                           |surface_flowdatabladeVALIDATION_Blade_20.csv|
|                                   |                     (21.6599 MB/s)|
+-----------------------------------------------------------------------+
+--------------------------------------+
|  Inner_Iter|    Cur_Time|    rms[Rho]|
+--------------------------------------+
|        1810|  0.0000e+00|   -5.453893|
|        1820|  0.0000e+00|   -5.431420|
|        1830|  0.0000e+00|   -5.484939|
|        1840|  0.0000e+00|   -5.470395|
|        1850|  0.0000e+00|   -5.452659|
+-----------------------------------------------------------------------+
|        File Writing Summary       |              Filename             |
+-----------------------------------------------------------------------+
|SU2 binary restart                 |restart_flow_databladeVALIDATION_Blade_20.dat|
|                                   |                     (12443.9 MB/s)|
|Paraview                           |volume_flow_databladeVALIDATION_Blade_20.vtu|
|                                   |                     (1089.76 MB/s)|
|Paraview surface                   |surface_flowdatabladeVALIDATION_Blade_20.vtu|
|                                   |                     (95.1042 MB/s)|
|SU2 ASCII restart                  |restart_flow_databladeVALIDATION_Blade_20.csv|
|                                   |                     (21.6261 MB/s)|
|CSV file                           |surface_flowdatabladeVALIDATION_Blade_20.csv|
|                                   |                     (20.8258 MB/s)|
+-----------------------------------------------------------------------+
+--------------------------------------+
|  Inner_Iter|    Cur_Time|    rms[Rho]|
+--------------------------------------+
|        1860|  0.0000e+00|   -5.517710|
|        1870|  0.0000e+00|   -5.526311|
|        1880|  0.0000e+00|   -5.506638|
|        1890|  0.0000e+00|   -5.523750|
|        1900|  0.0000e+00|   -5.557509|
+-----------------------------------------------------------------------+
|        File Writing Summary       |              Filename             |
+-----------------------------------------------------------------------+
|SU2 binary restart                 |restart_flow_databladeVALIDATION_Blade_20.dat|
|                                   |                     (12487.4 MB/s)|
|Paraview                           |volume_flow_databladeVALIDATION_Blade_20.vtu|
|                                   |                     (1104.63 MB/s)|
|Paraview surface                   |surface_flowdatabladeVALIDATION_Blade_20.vtu|
|                                   |                      (99.747 MB/s)|
|SU2 ASCII restart                  |restart_flow_databladeVALIDATION_Blade_20.csv|
|                                   |                     (21.9135 MB/s)|
|CSV file                           |surface_flowdatabladeVALIDATION_Blade_20.csv|
|                                   |                     (21.4193 MB/s)|
+-----------------------------------------------------------------------+
+--------------------------------------+
|  Inner_Iter|    Cur_Time|    rms[Rho]|
+--------------------------------------+
|        1910|  0.0000e+00|   -5.553716|
|        1920|  0.0000e+00|   -5.526032|
|        1930|  0.0000e+00|   -5.565368|
|        1940|  0.0000e+00|   -5.546152|
|        1950|  0.0000e+00|   -5.559785|
+-----------------------------------------------------------------------+
|        File Writing Summary       |              Filename             |
+-----------------------------------------------------------------------+
|SU2 binary restart                 |restart_flow_databladeVALIDATION_Blade_20.dat|
|                                   |                     (12187.8 MB/s)|
|Paraview                           |volume_flow_databladeVALIDATION_Blade_20.vtu|
|                                   |                      (1085.5 MB/s)|
|Paraview surface                   |surface_flowdatabladeVALIDATION_Blade_20.vtu|
|                                   |                     (98.9378 MB/s)|
|SU2 ASCII restart                  |restart_flow_databladeVALIDATION_Blade_20.csv|
|                                   |                     (21.8101 MB/s)|
|CSV file                           |surface_flowdatabladeVALIDATION_Blade_20.csv|
|                                   |                      (21.865 MB/s)|
+-----------------------------------------------------------------------+
+--------------------------------------+
|  Inner_Iter|    Cur_Time|    rms[Rho]|
+--------------------------------------+
|        1960|  0.0000e+00|   -5.593692|
|        1970|  0.0000e+00|   -5.631362|
|        1980|  0.0000e+00|   -5.660547|
|        1990|  0.0000e+00|   -5.672875|
|        2000|  0.0000e+00|   -5.662786|
+-----------------------------------------------------------------------+
|        File Writing Summary       |              Filename             |
+-----------------------------------------------------------------------+
|SU2 binary restart                 |restart_flow_databladeVALIDATION_Blade_20.dat|
|                                   |                     (12220.8 MB/s)|
|Paraview                           |volume_flow_databladeVALIDATION_Blade_20.vtu|
|                                   |                     (1046.15 MB/s)|
|Paraview surface                   |surface_flowdatabladeVALIDATION_Blade_20.vtu|
|                                   |                     (104.576 MB/s)|
|SU2 ASCII restart                  |restart_flow_databladeVALIDATION_Blade_20.csv|
|                                   |                     (22.4998 MB/s)|
|CSV file                           |surface_flowdatabladeVALIDATION_Blade_20.csv|
|                                   |                     (19.9917 MB/s)|
+-----------------------------------------------------------------------+
+--------------------------------------+
|  Inner_Iter|    Cur_Time|    rms[Rho]|
+--------------------------------------+
|        2010|  0.0000e+00|   -5.691983|
|        2020|  0.0000e+00|   -5.708762|
|        2030|  0.0000e+00|   -5.702222|
|        2040|  0.0000e+00|   -5.680861|
|        2050|  0.0000e+00|   -5.683404|
+-----------------------------------------------------------------------+
|        File Writing Summary       |              Filename             |
+-----------------------------------------------------------------------+
|SU2 binary restart                 |restart_flow_databladeVALIDATION_Blade_20.dat|
|                                   |                     (12392.6 MB/s)|
|Paraview                           |volume_flow_databladeVALIDATION_Blade_20.vtu|
|                                   |                     (980.153 MB/s)|
|Paraview surface                   |surface_flowdatabladeVALIDATION_Blade_20.vtu|
|                                   |                     (100.371 MB/s)|
|SU2 ASCII restart                  |restart_flow_databladeVALIDATION_Blade_20.csv|
|                                   |                     (21.7987 MB/s)|
|CSV file                           |surface_flowdatabladeVALIDATION_Blade_20.csv|
|                                   |                     (19.9869 MB/s)|
+-----------------------------------------------------------------------+
+--------------------------------------+
|  Inner_Iter|    Cur_Time|    rms[Rho]|
+--------------------------------------+
|        2060|  0.0000e+00|   -5.711512|
|        2070|  0.0000e+00|   -5.741804|
|        2080|  0.0000e+00|   -5.765435|
|        2090|  0.0000e+00|   -5.761880|
|        2100|  0.0000e+00|   -5.749467|
+-----------------------------------------------------------------------+
|        File Writing Summary       |              Filename             |
+-----------------------------------------------------------------------+
|SU2 binary restart                 |restart_flow_databladeVALIDATION_Blade_20.dat|
|                                   |                     (12040.5 MB/s)|
|Paraview                           |volume_flow_databladeVALIDATION_Blade_20.vtu|
|                                   |                     (1042.49 MB/s)|
|Paraview surface                   |surface_flowdatabladeVALIDATION_Blade_20.vtu|
|                                   |                     (102.759 MB/s)|
|SU2 ASCII restart                  |restart_flow_databladeVALIDATION_Blade_20.csv|
|                                   |                     (21.0228 MB/s)|
|CSV file                           |surface_flowdatabladeVALIDATION_Blade_20.csv|
|                                   |                     (21.9838 MB/s)|
+-----------------------------------------------------------------------+
+--------------------------------------+
|  Inner_Iter|    Cur_Time|    rms[Rho]|
+--------------------------------------+
|        2110|  0.0000e+00|   -5.768616|
|        2120|  0.0000e+00|   -5.777681|
|        2130|  0.0000e+00|   -5.770393|
|        2140|  0.0000e+00|   -5.762663|
|        2150|  0.0000e+00|   -5.807843|
+-----------------------------------------------------------------------+
|        File Writing Summary       |              Filename             |
+-----------------------------------------------------------------------+
|SU2 binary restart                 |restart_flow_databladeVALIDATION_Blade_20.dat|
|                                   |                     (11274.9 MB/s)|
|Paraview                           |volume_flow_databladeVALIDATION_Blade_20.vtu|
|                                   |                      (1063.1 MB/s)|
|Paraview surface                   |surface_flowdatabladeVALIDATION_Blade_20.vtu|
|                                   |                     (102.207 MB/s)|
|SU2 ASCII restart                  |restart_flow_databladeVALIDATION_Blade_20.csv|
|                                   |                     (22.3042 MB/s)|
|CSV file                           |surface_flowdatabladeVALIDATION_Blade_20.csv|
|                                   |                     (20.4611 MB/s)|
+-----------------------------------------------------------------------+
+--------------------------------------+
|  Inner_Iter|    Cur_Time|    rms[Rho]|
+--------------------------------------+
|        2160|  0.0000e+00|   -5.818800|
|        2170|  0.0000e+00|   -5.782317|
|        2180|  0.0000e+00|   -5.805181|
|        2190|  0.0000e+00|   -5.819648|
|        2200|  0.0000e+00|   -5.812463|
+-----------------------------------------------------------------------+
|        File Writing Summary       |              Filename             |
+-----------------------------------------------------------------------+
|SU2 binary restart                 |restart_flow_databladeVALIDATION_Blade_20.dat|
|                                   |                     (12902.3 MB/s)|
|Paraview                           |volume_flow_databladeVALIDATION_Blade_20.vtu|
|                                   |                      (1123.3 MB/s)|
|Paraview surface                   |surface_flowdatabladeVALIDATION_Blade_20.vtu|
|                                   |                     (101.967 MB/s)|
|SU2 ASCII restart                  |restart_flow_databladeVALIDATION_Blade_20.csv|
|                                   |                     (21.4448 MB/s)|
|CSV file                           |surface_flowdatabladeVALIDATION_Blade_20.csv|
|                                   |                     (20.7307 MB/s)|
+-----------------------------------------------------------------------+
+--------------------------------------+
|  Inner_Iter|    Cur_Time|    rms[Rho]|
+--------------------------------------+
|        2210|  0.0000e+00|   -5.793583|
|        2220|  0.0000e+00|   -5.814906|
|        2230|  0.0000e+00|   -5.813018|
|        2240|  0.0000e+00|   -5.861573|
|        2250|  0.0000e+00|   -5.855612|
+-----------------------------------------------------------------------+
|        File Writing Summary       |              Filename             |
+-----------------------------------------------------------------------+
|SU2 binary restart                 |restart_flow_databladeVALIDATION_Blade_20.dat|
|                                   |                     (12498.6 MB/s)|
|Paraview                           |volume_flow_databladeVALIDATION_Blade_20.vtu|
|                                   |                     (1104.47 MB/s)|
|Paraview surface                   |surface_flowdatabladeVALIDATION_Blade_20.vtu|
|                                   |                     (105.742 MB/s)|
|SU2 ASCII restart                  |restart_flow_databladeVALIDATION_Blade_20.csv|
|                                   |                     (21.7552 MB/s)|
|CSV file                           |surface_flowdatabladeVALIDATION_Blade_20.csv|
|                                   |                     (20.6483 MB/s)|
+-----------------------------------------------------------------------+
+--------------------------------------+
|  Inner_Iter|    Cur_Time|    rms[Rho]|
+--------------------------------------+
|        2260|  0.0000e+00|   -5.844957|
|        2270|  0.0000e+00|   -5.902494|
|        2280|  0.0000e+00|   -5.917994|
|        2290|  0.0000e+00|   -5.900150|
|        2300|  0.0000e+00|   -5.886743|
+-----------------------------------------------------------------------+
|        File Writing Summary       |              Filename             |
+-----------------------------------------------------------------------+
|SU2 binary restart                 |restart_flow_databladeVALIDATION_Blade_20.dat|
|                                   |                     (12705.7 MB/s)|
|Paraview                           |volume_flow_databladeVALIDATION_Blade_20.vtu|
|                                   |                     (1052.98 MB/s)|
|Paraview surface                   |surface_flowdatabladeVALIDATION_Blade_20.vtu|
|                                   |                     (96.5791 MB/s)|
|SU2 ASCII restart                  |restart_flow_databladeVALIDATION_Blade_20.csv|
|                                   |                     (22.1645 MB/s)|
|CSV file                           |surface_flowdatabladeVALIDATION_Blade_20.csv|
|                                   |                     (22.1544 MB/s)|
+-----------------------------------------------------------------------+
+--------------------------------------+
|  Inner_Iter|    Cur_Time|    rms[Rho]|
+--------------------------------------+
|        2310|  0.0000e+00|   -5.912544|
|        2320|  0.0000e+00|   -5.901932|
|        2330|  0.0000e+00|   -5.871265|
|        2340|  0.0000e+00|   -5.914092|
|        2350|  0.0000e+00|   -5.924803|
+-----------------------------------------------------------------------+
|        File Writing Summary       |              Filename             |
+-----------------------------------------------------------------------+
|SU2 binary restart                 |restart_flow_databladeVALIDATION_Blade_20.dat|
|                                   |                     (12417.7 MB/s)|
|Paraview                           |volume_flow_databladeVALIDATION_Blade_20.vtu|
[...]
|        File Writing Summary       |              Filename             |
+-----------------------------------------------------------------------+
|SU2 binary restart                 |restart_flow_databladeVALIDATION_Blade_20.dat|
|                                   |                     (12535.4 MB/s)|
|Paraview                           |volume_flow_databladeVALIDATION_Blade_20.vtu|
|                                   |                     (1093.62 MB/s)|
|Paraview surface                   |surface_flowdatabladeVALIDATION_Blade_20.vtu|
|                                   |                      (106.74 MB/s)|
|SU2 ASCII restart                  |restart_flow_databladeVALIDATION_Blade_20.csv|
|                                   |                     (21.1875 MB/s)|
|CSV file                           |surface_flowdatabladeVALIDATION_Blade_20.csv|
|                                   |                      (21.881 MB/s)|
+-----------------------------------------------------------------------+
+--------------------------------------+
|  Inner_Iter|    Cur_Time|    rms[Rho]|
+--------------------------------------+
|        3110|  0.0000e+00|   -6.520254|
|        3120|  0.0000e+00|   -6.592627|
|        3130|  0.0000e+00|   -6.593029|
|        3140|  0.0000e+00|   -6.569739|
|        3150|  0.0000e+00|   -6.601704|
+-----------------------------------------------------------------------+
|        File Writing Summary       |              Filename             |
+-----------------------------------------------------------------------+
|SU2 binary restart                 |restart_flow_databladeVALIDATION_Blade_20.dat|
|                                   |                       (12800 MB/s)|
|Paraview                           |volume_flow_databladeVALIDATION_Blade_20.vtu|
|                                   |                     (1057.23 MB/s)|
|Paraview surface                   |surface_flowdatabladeVALIDATION_Blade_20.vtu|
|                                   |                     (103.806 MB/s)|
|SU2 ASCII restart                  |restart_flow_databladeVALIDATION_Blade_20.csv|
|                                   |                     (22.1141 MB/s)|
|CSV file                           |surface_flowdatabladeVALIDATION_Blade_20.csv|
|                                   |                     (20.3709 MB/s)|
+-----------------------------------------------------------------------+
+--------------------------------------+
|  Inner_Iter|    Cur_Time|    rms[Rho]|
+--------------------------------------+
|        3160|  0.0000e+00|   -6.642664|
|        3170|  0.0000e+00|   -6.626190|
|        3180|  0.0000e+00|   -6.556254|
|        3190|  0.0000e+00|   -6.637728|
|        3200|  0.0000e+00|   -6.649571|
+-----------------------------------------------------------------------+
|        File Writing Summary       |              Filename             |
+-----------------------------------------------------------------------+
|SU2 binary restart                 |restart_flow_databladeVALIDATION_Blade_20.dat|
|                                   |                     (12018.8 MB/s)|
|Paraview                           |volume_flow_databladeVALIDATION_Blade_20.vtu|
|                                   |                     (1052.51 MB/s)|
|Paraview surface                   |surface_flowdatabladeVALIDATION_Blade_20.vtu|
|                                   |                     (123.007 MB/s)|
|SU2 ASCII restart                  |restart_flow_databladeVALIDATION_Blade_20.csv|
|                                   |                     (21.8132 MB/s)|
|CSV file                           |surface_flowdatabladeVALIDATION_Blade_20.csv|
|                                   |                     (21.2634 MB/s)|
+-----------------------------------------------------------------------+
+--------------------------------------+
|  Inner_Iter|    Cur_Time|    rms[Rho]|
+--------------------------------------+
|        3210|  0.0000e+00|   -6.635234|
|        3220|  0.0000e+00|   -6.639074|
|        3230|  0.0000e+00|   -6.664464|
|        3240|  0.0000e+00|   -6.664340|
|        3250|  0.0000e+00|   -6.714704|
+-----------------------------------------------------------------------+
|        File Writing Summary       |              Filename             |
+-----------------------------------------------------------------------+
|SU2 binary restart                 |restart_flow_databladeVALIDATION_Blade_20.dat|
|                                   |                     (12534.4 MB/s)|
|Paraview                           |volume_flow_databladeVALIDATION_Blade_20.vtu|
|                                   |                     (1096.49 MB/s)|
|Paraview surface                   |surface_flowdatabladeVALIDATION_Blade_20.vtu|
|                                   |                     (106.261 MB/s)|
|SU2 ASCII restart                  |restart_flow_databladeVALIDATION_Blade_20.csv|
|                                   |                      (20.693 MB/s)|
|CSV file                           |surface_flowdatabladeVALIDATION_Blade_20.csv|
|                                   |                     (21.9336 MB/s)|
+-----------------------------------------------------------------------+
+--------------------------------------+
|  Inner_Iter|    Cur_Time|    rms[Rho]|
+--------------------------------------+
|        3260|  0.0000e+00|   -6.702026|
|        3270|  0.0000e+00|   -6.722146|
|        3280|  0.0000e+00|   -6.752933|
|        3290|  0.0000e+00|   -6.756748|
|        3300|  0.0000e+00|   -6.740274|
+-----------------------------------------------------------------------+
|        File Writing Summary       |              Filename             |
+-----------------------------------------------------------------------+
|SU2 binary restart                 |restart_flow_databladeVALIDATION_Blade_20.dat|
|                                   |                     (12228.6 MB/s)|
|Paraview                           |volume_flow_databladeVALIDATION_Blade_20.vtu|
|                                   |                     (1110.55 MB/s)|
|Paraview surface                   |surface_flowdatabladeVALIDATION_Blade_20.vtu|
|                                   |                     (102.718 MB/s)|
|SU2 ASCII restart                  |restart_flow_databladeVALIDATION_Blade_20.csv|
|                                   |                     (21.9931 MB/s)|
|CSV file                           |surface_flowdatabladeVALIDATION_Blade_20.csv|
|                                   |                     (21.1907 MB/s)|
+-----------------------------------------------------------------------+
+--------------------------------------+
|  Inner_Iter|    Cur_Time|    rms[Rho]|
+--------------------------------------+
|        3310|  0.0000e+00|   -6.765367|
|        3320|  0.0000e+00|   -6.770630|
|        3330|  0.0000e+00|   -6.760278|
|        3340|  0.0000e+00|   -6.774642|
|        3350|  0.0000e+00|   -6.799290|
+-----------------------------------------------------------------------+
|        File Writing Summary       |              Filename             |
+-----------------------------------------------------------------------+
|SU2 binary restart                 |restart_flow_databladeVALIDATION_Blade_20.dat|
|                                   |                     (13260.3 MB/s)|
|Paraview                           |volume_flow_databladeVALIDATION_Blade_20.vtu|
|                                   |                     (1019.17 MB/s)|
|Paraview surface                   |surface_flowdatabladeVALIDATION_Blade_20.vtu|
|                                   |                     (101.679 MB/s)|
|SU2 ASCII restart                  |restart_flow_databladeVALIDATION_Blade_20.csv|
|                                   |                     (21.7931 MB/s)|
|CSV file                           |surface_flowdatabladeVALIDATION_Blade_20.csv|
|                                   |                     (21.7711 MB/s)|
+-----------------------------------------------------------------------+
+--------------------------------------+
|  Inner_Iter|    Cur_Time|    rms[Rho]|
+--------------------------------------+
|        3360|  0.0000e+00|   -6.806351|
|        3370|  0.0000e+00|   -6.800941|
|        3380|  0.0000e+00|   -6.822925|
|        3390|  0.0000e+00|   -6.818880|
|        3400|  0.0000e+00|   -6.807682|
+-----------------------------------------------------------------------+
|        File Writing Summary       |              Filename             |
+-----------------------------------------------------------------------+
|SU2 binary restart                 |restart_flow_databladeVALIDATION_Blade_20.dat|
|                                   |                     (12418.7 MB/s)|
|Paraview                           |volume_flow_databladeVALIDATION_Blade_20.vtu|
|                                   |                     (997.018 MB/s)|
|Paraview surface                   |surface_flowdatabladeVALIDATION_Blade_20.vtu|
|                                   |                     (101.472 MB/s)|
|SU2 ASCII restart                  |restart_flow_databladeVALIDATION_Blade_20.csv|
|                                   |                     (21.5994 MB/s)|
|CSV file                           |surface_flowdatabladeVALIDATION_Blade_20.csv|
|                                   |                     (21.6384 MB/s)|
+-----------------------------------------------------------------------+
+--------------------------------------+
|  Inner_Iter|    Cur_Time|    rms[Rho]|
+--------------------------------------+
|        3410|  0.0000e+00|   -6.821613|
|        3420|  0.0000e+00|   -6.829206|
|        3430|  0.0000e+00|   -6.830919|
|        3440|  0.0000e+00|   -6.823824|
|        3450|  0.0000e+00|   -6.847559|
+-----------------------------------------------------------------------+
|        File Writing Summary       |              Filename             |
+-----------------------------------------------------------------------+
|SU2 binary restart                 |restart_flow_databladeVALIDATION_Blade_20.dat|
|                                   |                     (12207.2 MB/s)|
|Paraview                           |volume_flow_databladeVALIDATION_Blade_20.vtu|
|                                   |                     (1032.42 MB/s)|
|Paraview surface                   |surface_flowdatabladeVALIDATION_Blade_20.vtu|
|                                   |                     (103.568 MB/s)|
|SU2 ASCII restart                  |restart_flow_databladeVALIDATION_Blade_20.csv|
|                                   |                     (22.0802 MB/s)|
|CSV file                           |surface_flowdatabladeVALIDATION_Blade_20.csv|
|                                   |                     (21.1399 MB/s)|
+-----------------------------------------------------------------------+
+--------------------------------------+
|  Inner_Iter|    Cur_Time|    rms[Rho]|
+--------------------------------------+
|        3460|  0.0000e+00|   -6.849546|
|        3470|  0.0000e+00|   -6.843687|
|        3480|  0.0000e+00|   -6.858923|
|        3490|  0.0000e+00|   -6.867766|
|        3500|  0.0000e+00|   -6.855157|
+-----------------------------------------------------------------------+
|        File Writing Summary       |              Filename             |
+-----------------------------------------------------------------------+
|SU2 binary restart                 |restart_flow_databladeVALIDATION_Blade_20.dat|
|                                   |                     (12564.1 MB/s)|
|Paraview                           |volume_flow_databladeVALIDATION_Blade_20.vtu|
|                                   |                     (1037.17 MB/s)|
|Paraview surface                   |surface_flowdatabladeVALIDATION_Blade_20.vtu|
|                                   |                     (105.843 MB/s)|
|SU2 ASCII restart                  |restart_flow_databladeVALIDATION_Blade_20.csv|
|                                   |                     (21.8197 MB/s)|
|CSV file                           |surface_flowdatabladeVALIDATION_Blade_20.csv|
|                                   |                     (21.0157 MB/s)|
+-----------------------------------------------------------------------+
+--------------------------------------+
|  Inner_Iter|    Cur_Time|    rms[Rho]|
+--------------------------------------+
|        3510|  0.0000e+00|   -6.864812|
|        3520|  0.0000e+00|   -6.872232|
|        3530|  0.0000e+00|   -6.877638|
|        3540|  0.0000e+00|   -6.884229|
|        3550|  0.0000e+00|   -6.893760|
+-----------------------------------------------------------------------+
|        File Writing Summary       |              Filename             |
+-----------------------------------------------------------------------+
|SU2 binary restart                 |restart_flow_databladeVALIDATION_Blade_20.dat|
|                                   |                     (12350.7 MB/s)|
|Paraview                           |volume_flow_databladeVALIDATION_Blade_20.vtu|
|                                   |                     (1118.59 MB/s)|
|Paraview surface                   |surface_flowdatabladeVALIDATION_Blade_20.vtu|
|                                   |                     (107.357 MB/s)|
|SU2 ASCII restart                  |restart_flow_databladeVALIDATION_Blade_20.csv|
|                                   |                     (21.4319 MB/s)|
|CSV file                           |surface_flowdatabladeVALIDATION_Blade_20.csv|
|                                   |                      (21.318 MB/s)|
+-----------------------------------------------------------------------+
+--------------------------------------+
|  Inner_Iter|    Cur_Time|    rms[Rho]|
+--------------------------------------+
|        3560|  0.0000e+00|   -6.904946|
|        3570|  0.0000e+00|   -6.915491|
|        3580|  0.0000e+00|   -6.928062|
|        3590|  0.0000e+00|   -6.942076|
|        3600|  0.0000e+00|   -6.949332|
+-----------------------------------------------------------------------+
|        File Writing Summary       |              Filename             |
+-----------------------------------------------------------------------+
|SU2 binary restart                 |restart_flow_databladeVALIDATION_Blade_20.dat|
|                                   |                     (12999.6 MB/s)|
|Paraview                           |volume_flow_databladeVALIDATION_Blade_20.vtu|
|                                   |                     (1092.28 MB/s)|
|Paraview surface                   |surface_flowdatabladeVALIDATION_Blade_20.vtu|
|                                   |                     (103.325 MB/s)|
|SU2 ASCII restart                  |restart_flow_databladeVALIDATION_Blade_20.csv|
|                                   |                     (21.7037 MB/s)|
|CSV file                           |surface_flowdatabladeVALIDATION_Blade_20.csv|
|                                   |                     (19.9294 MB/s)|
+-----------------------------------------------------------------------+
+--------------------------------------+
|  Inner_Iter|    Cur_Time|    rms[Rho]|
+--------------------------------------+
|        3610|  0.0000e+00|   -6.951403|
|        3620|  0.0000e+00|   -6.958601|
|        3630|  0.0000e+00|   -6.969867|
|        3640|  0.0000e+00|   -6.978198|
|        3650|  0.0000e+00|   -6.986024|
+-----------------------------------------------------------------------+
|        File Writing Summary       |              Filename             |
+-----------------------------------------------------------------------+
|SU2 binary restart                 |restart_flow_databladeVALIDATION_Blade_20.dat|
|                                   |                     (12151.1 MB/s)|
|Paraview                           |volume_flow_databladeVALIDATION_Blade_20.vtu|
|                                   |                     (1111.18 MB/s)|
|Paraview surface                   |surface_flowdatabladeVALIDATION_Blade_20.vtu|
|                                   |                     (101.705 MB/s)|
|SU2 ASCII restart                  |restart_flow_databladeVALIDATION_Blade_20.csv|
|                                   |                     (21.6816 MB/s)|
|CSV file                           |surface_flowdatabladeVALIDATION_Blade_20.csv|
|                                   |                     (21.4405 MB/s)|
+-----------------------------------------------------------------------+
+--------------------------------------+
|  Inner_Iter|    Cur_Time|    rms[Rho]|
+--------------------------------------+
|        3660|  0.0000e+00|   -6.995665|
|        3664|  0.0000e+00|   -7.000015|

----------------------------- Solver Exit -------------------------------
All convergence criteria satisfied.
+-----------------------------------------------------------------------+
|      Convergence Field     |     Value    |   Criterion  |  Converged |
+-----------------------------------------------------------------------+
|                    rms[Rho]|      -7.00001|          < -7|         Yes|
+-----------------------------------------------------------------------+
-------------------------------------------------------------------------
+-----------------------------------------------------------------------+
|        File Writing Summary       |              Filename             |
+-----------------------------------------------------------------------+
|SU2 binary restart                 |restart_flow_databladeVALIDATION_Blade_20.dat|
|                                   |                     (12600.3 MB/s)|
|Paraview                           |volume_flow_databladeVALIDATION_Blade_20.vtu|
|                                   |                     (1067.22 MB/s)|
|Paraview surface                   |surface_flowdatabladeVALIDATION_Blade_20.vtu|
|                                   |                     (103.968 MB/s)|
|SU2 ASCII restart                  |restart_flow_databladeVALIDATION_Blade_20.csv|
|                                   |                     (21.7727 MB/s)|
|CSV file                           |surface_flowdatabladeVALIDATION_Blade_20.csv|
|                                   |                      (22.367 MB/s)|
+-----------------------------------------------------------------------+

--------------------------- Finalizing Solver ---------------------------
Deleted CNumerics container.
Deleted CIntegration container.
Deleted CSolver container.
Deleted CIteration container.
Deleted CInterface container.
Deleted CGeometry container.
Deleted CFreeFormDefBox class.
Deleted CSurfaceMovement class.
Deleted CVolumetricMovement class.
Deleted CConfig container.
Deleted nInst container.
Deleted COutput class.
-------------------------------------------------------------------------


-------------------------- Performance Summary --------------------------
Simulation totals:
   Wall-clock time (hrs):    0.105036 |            Core-hrs:     1.26043
                   Cores:          12 |          DOFs/point:           5
             Points/core:     4837.83 |   Ghost points/core:     145.833
 Ghost/Owned Point Ratio:   0.0301443 | 

Preprocessing phase:
       Preproc. Time (s):    0.403562 |   Preproc. Time (%):    0.106726

Compute phase:
        Compute Time (s):     375.582 |    Compute Time (%):      99.326
         Iteration count:        3665 |         Avg. s/iter:    0.102478
     Core-s/iter/Mpoints:     20.5628 |           Mpoints/s:    0.583579

Output phase:
         Output Time (s):     2.14502 |     Output Time (%):    0.567269
            Output count:           1 |       Avg. s/output:     2.14502
 Restart Aggr. BW (MB/s):      892937 |           MB/s/core:     74411.4
-------------------------------------------------------------------------


------------------------- Exit Success (SU2_CFD) ------------------------

