
-------------------------------------------------------------------------
|    ___ _   _ ___                                                      |
|   / __| | | |_  )   Release 8.0.1 "Harrier"                           |
|   \__ \ |_| |/ /                                                      |
|   |___/\___//___|   Suite (Computational Fluid Dynamics Code)         |
|                                                                       |
-------------------------------------------------------------------------
| SU2 Project Website: https://su2code.github.io                        |
|                                                                       |
| The SU2 Project is maintained by the SU2 Foundation                   |
| (http://su2foundation.org)                                            |
-------------------------------------------------------------------------
| Copyright 2012-2024, SU2 Contributors                                 |
|                                                                       |
| SU2 is free software; you can redistribute it and/or                  |
| modify it under the terms of the GNU Lesser General Public            |
| License as published by the Free Software Foundation; either          |
| version 2.1 of the License, or (at your option) any later version.    |
|                                                                       |
| SU2 is distributed in the hope that it will be useful,                |
| but WITHOUT ANY WARRANTY; without even the implied warranty of        |
| MERCHANTABILITY or FITNESS FOR A PARTICULAR PURPOSE. See the GNU      |
| Lesser General Public License for more details.                       |
|                                                                       |
| You should have received a copy of the GNU Lesser General Public      |
| License along with SU2. If not, see <http://www.gnu.org/licenses/>.   |
-------------------------------------------------------------------------

Parsing config file for zone 0

----------------- Physical Case Definition ( Zone 0 ) -------------------
Compressible RANS equations.
Turbulence model: Spalart-Allmaras-noft2-BCM
Hybrid RANS/LES: No Hybrid RANS/LES
Mach number: 0.667.
Angle of attack (AoA): -4 deg, and angle of sideslip (AoS): 0 deg.
Reynolds number: 600000. Reference length 1.00205.
No restart solution, use the values at infinity (freestream).
Dimensional simulation.
The reference area will be computed using y(2D) or z(3D) projection.
The semi-span will be computed using the max y(3D) value.
The reference length is 1.00205 m.
Reference origin for moment evaluation is (0, 0, 0).
Surface(s) where the force coefficients are evaluated: blade1.

Surface(s) plotted in the output file: blade1.
Surface(s) to be analyzed in detail: inlet, outlet, blade1.
Input mesh file name: cascade2D_databladeVALIDATION_Blade_25.su2

--------------- Space Numerical Integration ( Zone 0 ) ------------------
Jameson-Schmidt-Turkel scheme (2nd order in space) for the flow inviscid terms.
JST viscous coefficients (2nd & 4th): 0.5, 0.02.
The method includes a grid stretching correction (p = 0.3).
Scalar upwind solver for the turbulence model.
First order integration in space.
Average of gradients with correction (viscous flow terms).
Average of gradients with correction (viscous turbulence terms).
Gradient for upwind reconstruction: inverse-distance weighted Least-Squares.
Gradient for viscous and source terms: inverse-distance weighted Least-Squares.

--------------- Time Numerical Integration  ( Zone 0 ) ------------------
Local time stepping (steady state simulation).
Euler implicit method for the flow equations.
FGMRES is used for solving the linear system.
Using a LU-SGS preconditioning.
Convergence criteria of the linear solver: 0.0001.
Max number of linear iterations: 10.
V Multigrid Cycle, with 3 multigrid levels.
Damping factor for the residual restriction: 0.75.
Damping factor for the correction prolongation: 0.75.
CFL adaptation. Factor down: 0.1, factor up: 1.2,
                lower limit: 0.1, upper limit: 100,
                acceptable linear residual: 0.001.
+-------------------------------------------+
|  MG Level| Presmooth|PostSmooth|CorrectSmo|
+-------------------------------------------+
|         0|         1|         0|         1|
|         1|         2|         2|         2|
|         2|         3|         3|         3|
|         3|         3|         0|         0|
+-------------------------------------------+
Courant-Friedrichs-Lewy number:       12
Euler implicit time integration for the turbulence model.

------------------ Convergence Criteria  ( Zone 0 ) ---------------------
Maximum number of solver subiterations: 7000.
Begin convergence monitoring at iteration 500.
Residual minimum value: 1e-7.
Cauchy series min. value: 1e-10.
Number of Cauchy elements: 100.
Begin windowed time average at iteration 0.

-------------------- Output Information ( Zone 0 ) ----------------------
File writing frequency: 
+------------------------------------+
|                     File| Frequency|
+------------------------------------+
|                  RESTART|        50|
|                 PARAVIEW|        50|
|         SURFACE_PARAVIEW|        50|
|                      CSV|        50|
|              SURFACE_CSV|        50|
+------------------------------------+
Writing the convergence history file every 1 inner iterations.
Writing the screen convergence history every 10 inner iterations.
The tabular file format is CSV (.csv).
Convergence history file name: history_databladeVALIDATION_Blade_25.
Forces breakdown file name: forces_breakdown.dat.
Surface file name: surface_flowdatabladeVALIDATION_Blade_25.
Volume file name: volume_flow_databladeVALIDATION_Blade_25.
Restart file name: restart_flow_databladeVALIDATION_Blade_25.dat.

------------- Config File Boundary Information ( Zone 0 ) ---------------
+-----------------------------------------------------------------------+
|                        Marker Type|                        Marker Name|
+-----------------------------------------------------------------------+
|                  Periodic boundary|               symmetricWallsBOTTOM|
|                                   |                  symmetricWallsTOP|
+-----------------------------------------------------------------------+
|                     Inlet boundary|                              inlet|
+-----------------------------------------------------------------------+
|                    Outlet boundary|                             outlet|
+-----------------------------------------------------------------------+
|                     Heat flux wall|                             blade1|
|                                   |                             blade2|
+-----------------------------------------------------------------------+

-------------------- Output Preprocessing ( Zone 0 ) --------------------
  Info: Ignoring the following screen output fields:
  LINSOL_ITER_TRANS, LINSOL_RESIDUAL_TRANS
Screen output fields: INNER_ITER, WALL_TIME, RMS_DENSITY
  Info: Ignoring the following history output groups:
  RMS_TKE, RMS_DISSIPATION
History output group(s): INNER_ITER, WALL_TIME, RMS_DENSITY, RMS_MOMENTUM-X, RMS_ENERGY, LINSOL, CFL_NUMBER, FLOW_COEFF_SURF, AERO_COEFF_SURF
Convergence field(s): RMS_DENSITY
Warning: No (valid) fields chosen for time convergence monitoring. Time convergence monitoring inactive.
Volume output fields: COORDINATES, SOLUTION, PRIMITIVE, RESIDUAL, TIMESTEP, MESH_QUALITY, VORTEX_IDENTIFICATION

------------------- Geometry Preprocessing ( Zone 0 ) -------------------
Two dimensional problem.
65307 grid points before partitioning.
100222 volume elements before partitioning.
5 surface markers.
25 boundary elements in index 0 (Marker = inlet).
323 boundary elements in index 1 (Marker = symmetricWallsBOTTOM).
323 boundary elements in index 2 (Marker = symmetricWallsTOP).
71 boundary elements in index 3 (Marker = outlet).
1186 boundary elements in index 4 (Marker = blade1).
Executing the partitioning functions.
Building the graph adjacency structure.
Calling ParMETIS... graph partitioning complete (1540 edge cuts).
Distributing ParMETIS coloring.
Rebalancing vertices.
Rebalancing volume element connectivity.
Rebalancing markers and surface elements.
67183 vertices including ghost points. 
101753 interior elements including halo cells. 
72968 triangles.
28785 quadrilaterals.
Establishing MPI communication patterns.
Setting point connectivity.
Renumbering points (Reverse Cuthill McKee Ordering).
Recomputing point connectivity.
Setting element connectivity.
Checking the numerical grid orientation.
All volume elements are correctly orientend.
There has been a re-orientation of 951 LINE surface elements.
Identifying edges and vertices.
Setting the control volume structure.
Area of the computational grid: 3.31457.
Searching for the closest normal neighbors to the surfaces.
Storing a mapping from global to local point index.
Compute the surface curvature.
Max K: 138.389. Mean K: 4.15395. Standard deviation K: 14.059.
Checking for periodicity.
WARNING: Periodicity has been detected. Disabling multigrid. 
Computing mesh quality statistics for the dual control volumes.
+--------------------------------------------------------------+
|           Mesh Quality Metric|        Minimum|        Maximum|
+--------------------------------------------------------------+
|    Orthogonality Angle (deg.)|        55.2095|             90|
|     CV Face Area Aspect Ratio|        1.00004|        257.975|
|           CV Sub-Volume Ratio|              1|        17.0353|
+--------------------------------------------------------------+
Finding max control volume width.
Communicating number of neighbors.
Reference length = 1.01479 m.
Wetted area = 2.70938 m.
Area projection in the x-plane = 0.772856 m, y-plane = 1.01479 m.
Max. coordinate in the x-direction = 1.01469 m, y-direction = 0.65125 m.
Min. coordinate in the x-direction = -0.000100913 m, y-direction = -0.121613 m.
Matching the periodic boundary points for marker pair 1.
 Matched 648 points with a max distance of: 5.55642e-11.
Computing wall distances.

-------------------- Solver Preprocessing ( Zone 0 ) --------------------
Viscous flow: Computing pressure using the ideal gas law
based on the free-stream temperature and a density computed
from the Reynolds number.
Force coefficients computed using free-stream values.

-- Models:
+------------------------------------------------------------------------------+
|          Viscosity Model|        Conductivity Model|              Fluid Model|
+------------------------------------------------------------------------------+
|               SUTHERLAND|          CONSTANT_PRANDTL|                IDEAL_GAS|
+------------------------------------------------------------------------------+
-- Fluid properties:
+------------------------------------------------------------------------------+
|                  Name|    Dim. value|    Ref. value|      Unit|Non-dim. value|
+------------------------------------------------------------------------------+
|        Ref. Viscosity|     1.716e-05|             1|   N.s/m^2|     1.716e-05|
|      Sutherland Temp.|        273.15|             1|         K|        273.15|
|     Sutherland Const.|         110.4|             1|         K|         110.4|
+------------------------------------------------------------------------------+
|        Prandtl (Lam.)|             -|             -|         -|          0.72|
|       Prandtl (Turb.)|             -|             -|         -|           0.9|
+------------------------------------------------------------------------------+
|          Gas Constant|       287.058|             1|  N.m/kg.K|       287.058|
|      Spec. Heat Ratio|             -|             -|         -|           1.4|
+------------------------------------------------------------------------------+
-- Initial and free-stream conditions:
+------------------------------------------------------------------------------+
|                  Name|    Dim. value|    Ref. value|      Unit|Non-dim. value|
+------------------------------------------------------------------------------+
|       Static Pressure|       4109.86|             1|        Pa|       4109.86|
|               Density|      0.047724|             1|    kg/m^3|      0.047724|
|           Temperature|           300|             1|         K|           300|
|          Total Energy|        242112|             1|   m^2/s^2|        242112|
|            Velocity-X|       231.034|             1|       m/s|       231.034|
|            Velocity-Y|      -16.1555|             1|       m/s|      -16.1555|
|    Velocity Magnitude|       231.598|             1|       m/s|       231.598|
+------------------------------------------------------------------------------+
|             Viscosity|   1.84592e-05|             1|   N.s/m^2|   1.84592e-05|
|          Conductivity|             -|             1|   W/m^2.K|             -|
|     Turb. Kin. Energy|       98.5594|             1|   m^2/s^2|       98.5594|
|     Spec. Dissipation|   2.54814e+06|             1|       1/s|   2.54814e+06|
+------------------------------------------------------------------------------+
|           Mach Number|             -|             -|         -|         0.667|
|       Reynolds Number|             -|             -|         -|        600000|
+------------------------------------------------------------------------------+
Initialize Jacobian structure (Navier-Stokes). MG level: 0.
Initialize Jacobian structure (SA model).

------------------- Numerics Preprocessing ( Zone 0 ) -------------------

----------------- Integration Preprocessing ( Zone 0 ) ------------------

------------------- Iteration Preprocessing ( Zone 0 ) ------------------
Euler/Navier-Stokes/RANS fluid iteration.

------------------------------ Begin Solver -----------------------------

Simulation Run using the Single-zone Driver
WARNING: SU2 was not compiled for an AVX-capable architecture. Performance could be better,
         see https://su2code.github.io/docs_v7/Build-SU2-Linux-MacOS/#compiler-optimizations
+--------------------------------------+
|  Inner_Iter|   Time(sec)|    rms[Rho]|
+--------------------------------------+
|           0|  8.6058e-02|   -2.632059|
|          10|  7.5203e-02|   -3.241016|
|          20|  7.8285e-02|   -3.050965|
|          30|  7.6346e-02|   -3.089556|
|          40|  7.4327e-02|   -3.006862|
|          50|  7.5127e-02|   -2.965344|
+-----------------------------------------------------------------------+
|        File Writing Summary       |              Filename             |
+-----------------------------------------------------------------------+
|SU2 binary restart                 |restart_flow_databladeVALIDATION_Blade_25.dat|
|                                   |                     (11865.2 MB/s)|
|Paraview                           |volume_flow_databladeVALIDATION_Blade_25.vtu|
|                                   |                     (897.107 MB/s)|
|Paraview surface                   |surface_flowdatabladeVALIDATION_Blade_25.vtu|
|                                   |                     (77.2761 MB/s)|
|SU2 ASCII restart                  |restart_flow_databladeVALIDATION_Blade_25.csv|
|                                   |                     (20.1696 MB/s)|
|CSV file                           |surface_flowdatabladeVALIDATION_Blade_25.csv|
|                                   |                      (20.036 MB/s)|
+-----------------------------------------------------------------------+
+--------------------------------------+
|  Inner_Iter|   Time(sec)|    rms[Rho]|
+--------------------------------------+
|          60|  1.1809e-01|   -3.043252|
|          70|  1.1091e-01|   -3.136683|
|          80|  1.0586e-01|   -3.130671|
|          90|  1.0220e-01|   -3.134786|
|         100|  1.0009e-01|   -3.149609|
+-----------------------------------------------------------------------+
|        File Writing Summary       |              Filename             |
+-----------------------------------------------------------------------+
|SU2 binary restart                 |restart_flow_databladeVALIDATION_Blade_25.dat|
|                                   |                     (7317.99 MB/s)|
|Paraview                           |volume_flow_databladeVALIDATION_Blade_25.vtu|
|                                   |                     (1046.78 MB/s)|
|Paraview surface                   |surface_flowdatabladeVALIDATION_Blade_25.vtu|
|                                   |                     (127.075 MB/s)|
|SU2 ASCII restart                  |restart_flow_databladeVALIDATION_Blade_25.csv|
|                                   |                      (21.534 MB/s)|
|CSV file                           |surface_flowdatabladeVALIDATION_Blade_25.csv|
|                                   |                     (21.1034 MB/s)|
+-----------------------------------------------------------------------+
+--------------------------------------+
|  Inner_Iter|   Time(sec)|    rms[Rho]|
+--------------------------------------+
|         110|  1.1879e-01|   -3.141282|
|         120|  1.1482e-01|   -3.091742|
|         130|  1.1200e-01|   -3.138927|
|         140|  1.0857e-01|   -3.220556|
|         150|  1.0542e-01|   -3.296492|
+-----------------------------------------------------------------------+
|        File Writing Summary       |              Filename             |
+-----------------------------------------------------------------------+
|SU2 binary restart                 |restart_flow_databladeVALIDATION_Blade_25.dat|
|                                   |                     (10433.2 MB/s)|
|Paraview                           |volume_flow_databladeVALIDATION_Blade_25.vtu|
|                                   |                     (1052.73 MB/s)|
|Paraview surface                   |surface_flowdatabladeVALIDATION_Blade_25.vtu|
|                                   |                     (76.3728 MB/s)|
|SU2 ASCII restart                  |restart_flow_databladeVALIDATION_Blade_25.csv|
|                                   |                     (21.5117 MB/s)|
|CSV file                           |surface_flowdatabladeVALIDATION_Blade_25.csv|
|                                   |                     (20.6738 MB/s)|
+-----------------------------------------------------------------------+
+--------------------------------------+
|  Inner_Iter|   Time(sec)|    rms[Rho]|
+--------------------------------------+
|         160|  1.1830e-01|   -3.233639|
|         170|  1.1550e-01|   -3.144774|
|         180|  1.1269e-01|   -3.141152|
|         190|  1.1034e-01|   -3.104950|
|         200|  1.0889e-01|   -3.088880|
+-----------------------------------------------------------------------+
|        File Writing Summary       |              Filename             |
+-----------------------------------------------------------------------+
|SU2 binary restart                 |restart_flow_databladeVALIDATION_Blade_25.dat|
|                                   |                     (12790.5 MB/s)|
|Paraview                           |volume_flow_databladeVALIDATION_Blade_25.vtu|
|                                   |                      (1115.8 MB/s)|
|Paraview surface                   |surface_flowdatabladeVALIDATION_Blade_25.vtu|
|                                   |                     (103.448 MB/s)|
|SU2 ASCII restart                  |restart_flow_databladeVALIDATION_Blade_25.csv|
|                                   |                     (20.8847 MB/s)|
|CSV file                           |surface_flowdatabladeVALIDATION_Blade_25.csv|
|                                   |                     (19.2962 MB/s)|
+-----------------------------------------------------------------------+
+--------------------------------------+
|  Inner_Iter|   Time(sec)|    rms[Rho]|
+--------------------------------------+
|         210|  1.1886e-01|   -3.213065|
|         220|  1.1701e-01|   -3.248270|
|         230|  1.1513e-01|   -3.303398|
|         240|  1.1300e-01|   -3.306175|
|         250|  1.1127e-01|   -3.298294|
+-----------------------------------------------------------------------+
|        File Writing Summary       |              Filename             |
+-----------------------------------------------------------------------+
|SU2 binary restart                 |restart_flow_databladeVALIDATION_Blade_25.dat|
|                                   |                     (13445.3 MB/s)|
|Paraview                           |volume_flow_databladeVALIDATION_Blade_25.vtu|
|                                   |                     (983.395 MB/s)|
|Paraview surface                   |surface_flowdatabladeVALIDATION_Blade_25.vtu|
|                                   |                     (108.149 MB/s)|
|SU2 ASCII restart                  |restart_flow_databladeVALIDATION_Blade_25.csv|
|                                   |                     (20.9647 MB/s)|
|CSV file                           |surface_flowdatabladeVALIDATION_Blade_25.csv|
|                                   |                     (20.1203 MB/s)|
+-----------------------------------------------------------------------+
+--------------------------------------+
|  Inner_Iter|   Time(sec)|    rms[Rho]|
+--------------------------------------+
|         260|  1.1916e-01|   -3.289727|
|         270|  1.1748e-01|   -3.274410|
|         280|  1.1530e-01|   -3.280340|
|         290|  1.1345e-01|   -3.328848|
|         300|  1.1219e-01|   -3.330032|
+-----------------------------------------------------------------------+
|        File Writing Summary       |              Filename             |
+-----------------------------------------------------------------------+
|SU2 binary restart                 |restart_flow_databladeVALIDATION_Blade_25.dat|
|                                   |                     (13982.5 MB/s)|
|Paraview                           |volume_flow_databladeVALIDATION_Blade_25.vtu|
|                                   |                     (1045.24 MB/s)|
|Paraview surface                   |surface_flowdatabladeVALIDATION_Blade_25.vtu|
|                                   |                     (92.7289 MB/s)|
|SU2 ASCII restart                  |restart_flow_databladeVALIDATION_Blade_25.csv|
|                                   |                     (21.4517 MB/s)|
|CSV file                           |surface_flowdatabladeVALIDATION_Blade_25.csv|
|                                   |                     (22.2942 MB/s)|
+-----------------------------------------------------------------------+
+--------------------------------------+
|  Inner_Iter|   Time(sec)|    rms[Rho]|
+--------------------------------------+
|         310|  1.1841e-01|   -3.357524|
|         320|  1.1657e-01|   -3.314818|
|         330|  1.1464e-01|   -3.345293|
|         340|  1.1305e-01|   -3.346817|
|         350|  1.1188e-01|   -3.345442|
+-----------------------------------------------------------------------+
|        File Writing Summary       |              Filename             |
+-----------------------------------------------------------------------+
|SU2 binary restart                 |restart_flow_databladeVALIDATION_Blade_25.dat|
|                                   |                     (12826.6 MB/s)|
|Paraview                           |volume_flow_databladeVALIDATION_Blade_25.vtu|
|                                   |                     (1008.84 MB/s)|
|Paraview surface                   |surface_flowdatabladeVALIDATION_Blade_25.vtu|
|                                   |                     (85.2195 MB/s)|
|SU2 ASCII restart                  |restart_flow_databladeVALIDATION_Blade_25.csv|
|                                   |                     (21.3678 MB/s)|
|CSV file                           |surface_flowdatabladeVALIDATION_Blade_25.csv|
|                                   |                     (21.2582 MB/s)|
+-----------------------------------------------------------------------+
+--------------------------------------+
|  Inner_Iter|   Time(sec)|    rms[Rho]|
+--------------------------------------+
|         360|  1.1758e-01|   -3.355591|
|         370|  1.1602e-01|   -3.434459|
|         380|  1.1503e-01|   -3.425060|
|         390|  1.1391e-01|   -3.400612|
|         400|  1.1278e-01|   -3.449306|
+-----------------------------------------------------------------------+
|        File Writing Summary       |              Filename             |
+-----------------------------------------------------------------------+
|SU2 binary restart                 |restart_flow_databladeVALIDATION_Blade_25.dat|
|                                   |                     (11600.3 MB/s)|
|Paraview                           |volume_flow_databladeVALIDATION_Blade_25.vtu|
|                                   |                     (1083.06 MB/s)|
|Paraview surface                   |surface_flowdatabladeVALIDATION_Blade_25.vtu|
|                                   |                     (97.8592 MB/s)|
|SU2 ASCII restart                  |restart_flow_databladeVALIDATION_Blade_25.csv|
|                                   |                     (21.4317 MB/s)|
|CSV file                           |surface_flowdatabladeVALIDATION_Blade_25.csv|
|                                   |                      (19.994 MB/s)|
+-----------------------------------------------------------------------+
+--------------------------------------+
|  Inner_Iter|   Time(sec)|    rms[Rho]|
+--------------------------------------+
|         410|  1.1745e-01|   -3.463715|
|         420|  1.1624e-01|   -3.480320|
|         430|  1.1529e-01|   -3.470837|
|         440|  1.1424e-01|   -3.481501|
|         450|  1.1328e-01|   -3.531850|
+-----------------------------------------------------------------------+
|        File Writing Summary       |              Filename             |
+-----------------------------------------------------------------------+
|SU2 binary restart                 |restart_flow_databladeVALIDATION_Blade_25.dat|
|                                   |                     (9311.58 MB/s)|
|Paraview                           |volume_flow_databladeVALIDATION_Blade_25.vtu|
|                                   |                     (893.842 MB/s)|
|Paraview surface                   |surface_flowdatabladeVALIDATION_Blade_25.vtu|
|                                   |                     (91.1444 MB/s)|
|SU2 ASCII restart                  |restart_flow_databladeVALIDATION_Blade_25.csv|
|                                   |                       (21.19 MB/s)|
|CSV file                           |surface_flowdatabladeVALIDATION_Blade_25.csv|
|                                   |                     (19.7691 MB/s)|
+-----------------------------------------------------------------------+
+--------------------------------------+
|  Inner_Iter|   Time(sec)|    rms[Rho]|
+--------------------------------------+
|         460|  1.1785e-01|   -3.505121|
|         470|  1.1682e-01|   -3.614114|
|         480|  1.1607e-01|   -3.655911|
|         490|  1.1539e-01|   -3.623561|
|         500|  1.1464e-01|   -3.611703|
+-----------------------------------------------------------------------+
|        File Writing Summary       |              Filename             |
+-----------------------------------------------------------------------+
|SU2 binary restart                 |restart_flow_databladeVALIDATION_Blade_25.dat|
|                                   |                     (13093.3 MB/s)|
|Paraview                           |volume_flow_databladeVALIDATION_Blade_25.vtu|
|                                   |                     (482.758 MB/s)|
|Paraview surface                   |surface_flowdatabladeVALIDATION_Blade_25.vtu|
|                                   |                     (90.3587 MB/s)|
|SU2 ASCII restart                  |restart_flow_databladeVALIDATION_Blade_25.csv|
|                                   |                     (21.1412 MB/s)|
|CSV file                           |surface_flowdatabladeVALIDATION_Blade_25.csv|
|                                   |                      (20.034 MB/s)|
+-----------------------------------------------------------------------+
+--------------------------------------+
|  Inner_Iter|   Time(sec)|    rms[Rho]|
+--------------------------------------+
|         510|  1.1863e-01|   -3.677190|
|         520|  1.1752e-01|   -3.718605|
|         530|  1.1662e-01|   -3.720089|
|         540|  1.1586e-01|   -3.733446|
|         550|  1.1503e-01|   -3.760070|
+-----------------------------------------------------------------------+
|        File Writing Summary       |              Filename             |
+-----------------------------------------------------------------------+
|SU2 binary restart                 |restart_flow_databladeVALIDATION_Blade_25.dat|
|                                   |                     (10035.7 MB/s)|
|Paraview                           |volume_flow_databladeVALIDATION_Blade_25.vtu|
|                                   |                     (728.661 MB/s)|
|Paraview surface                   |surface_flowdatabladeVALIDATION_Blade_25.vtu|
|                                   |                     (79.8007 MB/s)|
|SU2 ASCII restart                  |restart_flow_databladeVALIDATION_Blade_25.csv|
|                                   |                     (20.8592 MB/s)|
|CSV file                           |surface_flowdatabladeVALIDATION_Blade_25.csv|
|                                   |                      (21.845 MB/s)|
+-----------------------------------------------------------------------+
+--------------------------------------+
|  Inner_Iter|   Time(sec)|    rms[Rho]|
+--------------------------------------+
|         560|  1.1878e-01|   -3.768613|
|         570|  1.1804e-01|   -3.748132|
|         580|  1.1723e-01|   -3.814847|
|         590|  1.1643e-01|   -3.860419|
|         600|  1.1580e-01|   -3.848304|
+-----------------------------------------------------------------------+
|        File Writing Summary       |              Filename             |
+-----------------------------------------------------------------------+
|SU2 binary restart                 |restart_flow_databladeVALIDATION_Blade_25.dat|
|                                   |                     (10070.8 MB/s)|
|Paraview                           |volume_flow_databladeVALIDATION_Blade_25.vtu|
|                                   |                     (1095.97 MB/s)|
|Paraview surface                   |surface_flowdatabladeVALIDATION_Blade_25.vtu|
|                                   |                     (99.7253 MB/s)|
|SU2 ASCII restart                  |restart_flow_databladeVALIDATION_Blade_25.csv|
|                                   |                     (20.9845 MB/s)|
|CSV file                           |surface_flowdatabladeVALIDATION_Blade_25.csv|
|                                   |                     (21.4685 MB/s)|
+-----------------------------------------------------------------------+
+--------------------------------------+
|  Inner_Iter|   Time(sec)|    rms[Rho]|
+--------------------------------------+
|         610|  1.1933e-01|   -3.846686|
|         620|  1.1844e-01|   -3.922553|
|         630|  1.1777e-01|   -3.928985|
|         640|  1.1707e-01|   -3.891612|
|         650|  1.1631e-01|   -3.968010|
+-----------------------------------------------------------------------+
|        File Writing Summary       |              Filename             |
+-----------------------------------------------------------------------+
|SU2 binary restart                 |restart_flow_databladeVALIDATION_Blade_25.dat|
|                                   |                     (12292.1 MB/s)|
|Paraview                           |volume_flow_databladeVALIDATION_Blade_25.vtu|
|                                   |                     (986.356 MB/s)|
|Paraview surface                   |surface_flowdatabladeVALIDATION_Blade_25.vtu|
|                                   |                     (95.1292 MB/s)|
|SU2 ASCII restart                  |restart_flow_databladeVALIDATION_Blade_25.csv|
|                                   |                     (20.8167 MB/s)|
|CSV file                           |surface_flowdatabladeVALIDATION_Blade_25.csv|
|                                   |                     (20.6578 MB/s)|
+-----------------------------------------------------------------------+
+--------------------------------------+
|  Inner_Iter|   Time(sec)|    rms[Rho]|
+--------------------------------------+
|         660|  1.1937e-01|   -3.997745|
|         670|  1.1889e-01|   -3.941820|
|         680|  1.1814e-01|   -4.034019|
|         690|  1.1744e-01|   -4.070524|
|         700|  1.1674e-01|   -4.098281|
+-----------------------------------------------------------------------+
|        File Writing Summary       |              Filename             |
+-----------------------------------------------------------------------+
|SU2 binary restart                 |restart_flow_databladeVALIDATION_Blade_25.dat|
|                                   |                     (9012.93 MB/s)|
|Paraview                           |volume_flow_databladeVALIDATION_Blade_25.vtu|
|                                   |                      (1056.3 MB/s)|
|Paraview surface                   |surface_flowdatabladeVALIDATION_Blade_25.vtu|
|                                   |                     (102.752 MB/s)|
|SU2 ASCII restart                  |restart_flow_databladeVALIDATION_Blade_25.csv|
|                                   |                     (21.1592 MB/s)|
|CSV file                           |surface_flowdatabladeVALIDATION_Blade_25.csv|
|                                   |                     (21.1342 MB/s)|
+-----------------------------------------------------------------------+
+--------------------------------------+
|  Inner_Iter|   Time(sec)|    rms[Rho]|
+--------------------------------------+
|         710|  1.1964e-01|   -4.054736|
|         720|  1.1900e-01|   -4.122748|
|         730|  1.1845e-01|   -4.131633|
|         740|  1.1795e-01|   -4.123563|
|         750|  1.1735e-01|   -4.122741|
+-----------------------------------------------------------------------+
|        File Writing Summary       |              Filename             |
+-----------------------------------------------------------------------+
|SU2 binary restart                 |restart_flow_databladeVALIDATION_Blade_25.dat|
|                                   |                     (12897.6 MB/s)|
|Paraview                           |volume_flow_databladeVALIDATION_Blade_25.vtu|
|                                   |                     (991.366 MB/s)|
|Paraview surface                   |surface_flowdatabladeVALIDATION_Blade_25.vtu|
|                                   |                      (94.998 MB/s)|
|SU2 ASCII restart                  |restart_flow_databladeVALIDATION_Blade_25.csv|
|                                   |                     (21.0784 MB/s)|
|CSV file                           |surface_flowdatabladeVALIDATION_Blade_25.csv|
|                                   |                     (21.2288 MB/s)|
+-----------------------------------------------------------------------+
+--------------------------------------+
|  Inner_Iter|   Time(sec)|    rms[Rho]|
+--------------------------------------+
|         760|  1.1995e-01|   -4.192416|
|         770|  1.1939e-01|   -4.220516|
|         780|  1.1888e-01|   -4.207153|
|         790|  1.1823e-01|   -4.249443|
|         800|  1.1758e-01|   -4.268457|
+-----------------------------------------------------------------------+
|        File Writing Summary       |              Filename             |
+-----------------------------------------------------------------------+
|SU2 binary restart                 |restart_flow_databladeVALIDATION_Blade_25.dat|
|                                   |                     (11678.9 MB/s)|
|Paraview                           |volume_flow_databladeVALIDATION_Blade_25.vtu|
|                                   |                     (997.058 MB/s)|
|Paraview surface                   |surface_flowdatabladeVALIDATION_Blade_25.vtu|
|                                   |                     (63.7086 MB/s)|
|SU2 ASCII restart                  |restart_flow_databladeVALIDATION_Blade_25.csv|
|                                   |                      (21.106 MB/s)|
|CSV file                           |surface_flowdatabladeVALIDATION_Blade_25.csv|
|                                   |                     (21.5295 MB/s)|
+-----------------------------------------------------------------------+
+--------------------------------------+
|  Inner_Iter|   Time(sec)|    rms[Rho]|
+--------------------------------------+
|         810|  1.2010e-01|   -4.248532|
|         820|  1.1967e-01|   -4.265843|
|         830|  1.1903e-01|   -4.304974|
|         840|  1.1847e-01|   -4.306854|
|         850|  1.1805e-01|   -4.257012|
+-----------------------------------------------------------------------+
|        File Writing Summary       |              Filename             |
+-----------------------------------------------------------------------+
|SU2 binary restart                 |restart_flow_databladeVALIDATION_Blade_25.dat|
|                                   |                     (12378.5 MB/s)|
|Paraview                           |volume_flow_databladeVALIDATION_Blade_25.vtu|
|                                   |                     (1039.11 MB/s)|
|Paraview surface                   |surface_flowdatabladeVALIDATION_Blade_25.vtu|
|                                   |                     (39.8147 MB/s)|
|SU2 ASCII restart                  |restart_flow_databladeVALIDATION_Blade_25.csv|
|                                   |                     (20.9471 MB/s)|
|CSV file                           |surface_flowdatabladeVALIDATION_Blade_25.csv|
|                                   |                     (18.5327 MB/s)|
+-----------------------------------------------------------------------+
+--------------------------------------+
|  Inner_Iter|   Time(sec)|    rms[Rho]|
+--------------------------------------+
|         860|  1.2040e-01|   -4.334204|
|         870|  1.1974e-01|   -4.353423|
|         880|  1.1923e-01|   -4.350006|
|         890|  1.1892e-01|   -4.343657|
|         900|  1.1871e-01|   -4.365063|
+-----------------------------------------------------------------------+
|        File Writing Summary       |              Filename             |
+-----------------------------------------------------------------------+
|SU2 binary restart                 |restart_flow_databladeVALIDATION_Blade_25.dat|
|                                   |                     (12484.2 MB/s)|
|Paraview                           |volume_flow_databladeVALIDATION_Blade_25.vtu|
|                                   |                     (781.908 MB/s)|
|Paraview surface                   |surface_flowdatabladeVALIDATION_Blade_25.vtu|
|                                   |                     (99.8162 MB/s)|
|SU2 ASCII restart                  |restart_flow_databladeVALIDATION_Blade_25.csv|
|                                   |                     (21.0664 MB/s)|
|CSV file                           |surface_flowdatabladeVALIDATION_Blade_25.csv|
|                                   |                     (19.6506 MB/s)|
+-----------------------------------------------------------------------+
+--------------------------------------+
|  Inner_Iter|   Time(sec)|    rms[Rho]|
+--------------------------------------+
|         910|  1.2106e-01|   -4.365621|
|         920|  1.2075e-01|   -4.411613|
|         930|  1.2059e-01|   -4.464649|
|         940|  1.2007e-01|   -4.537644|
|         950|  1.1970e-01|   -4.512265|
+-----------------------------------------------------------------------+
|        File Writing Summary       |              Filename             |
+-----------------------------------------------------------------------+
|SU2 binary restart                 |restart_flow_databladeVALIDATION_Blade_25.dat|
|                                   |                     (11202.7 MB/s)|
|Paraview                           |volume_flow_databladeVALIDATION_Blade_25.vtu|
|                                   |                     (685.037 MB/s)|
|Paraview surface                   |surface_flowdatabladeVALIDATION_Blade_25.vtu|
|                                   |                     (54.1925 MB/s)|
|SU2 ASCII restart                  |restart_flow_databladeVALIDATION_Blade_25.csv|
|                                   |                     (21.1279 MB/s)|
|CSV file                           |surface_flowdatabladeVALIDATION_Blade_25.csv|
|                                   |                     (20.4487 MB/s)|
+-----------------------------------------------------------------------+
+--------------------------------------+
|  Inner_Iter|   Time(sec)|    rms[Rho]|
+--------------------------------------+
|         960|  1.2212e-01|   -4.494395|
|         970|  1.2154e-01|   -4.545680|
|         980|  1.2101e-01|   -4.523052|
|         990|  1.2052e-01|   -4.533181|
|        1000|  1.1999e-01|   -4.573442|
+-----------------------------------------------------------------------+
|        File Writing Summary       |              Filename             |
+-----------------------------------------------------------------------+
|SU2 binary restart                 |restart_flow_databladeVALIDATION_Blade_25.dat|
|                                   |                     (12767.8 MB/s)|
|Paraview                           |volume_flow_databladeVALIDATION_Blade_25.vtu|
|                                   |                     (982.854 MB/s)|
|Paraview surface                   |surface_flowdatabladeVALIDATION_Blade_25.vtu|
|                                   |                     (92.2076 MB/s)|
|SU2 ASCII restart                  |restart_flow_databladeVALIDATION_Blade_25.csv|
|                                   |                     (21.0021 MB/s)|
|CSV file                           |surface_flowdatabladeVALIDATION_Blade_25.csv|
|                                   |                     (18.0845 MB/s)|
+-----------------------------------------------------------------------+
+--------------------------------------+
|  Inner_Iter|   Time(sec)|    rms[Rho]|
+--------------------------------------+
|        1010|  1.2207e-01|   -4.561058|
|        1020|  1.2171e-01|   -4.566231|
|        1030|  1.2137e-01|   -4.638826|
|        1040|  1.2104e-01|   -4.643608|
|        1050|  1.2069e-01|   -4.632199|
+-----------------------------------------------------------------------+
|        File Writing Summary       |              Filename             |
+-----------------------------------------------------------------------+
|SU2 binary restart                 |restart_flow_databladeVALIDATION_Blade_25.dat|
|                                   |                       (11844 MB/s)|
|Paraview                           |volume_flow_databladeVALIDATION_Blade_25.vtu|
|                                   |                     (936.468 MB/s)|
|Paraview surface                   |surface_flowdatabladeVALIDATION_Blade_25.vtu|
|                                   |                     (95.1179 MB/s)|
|SU2 ASCII restart                  |restart_flow_databladeVALIDATION_Blade_25.csv|
|                                   |                      (20.955 MB/s)|
|CSV file                           |surface_flowdatabladeVALIDATION_Blade_25.csv|
|                                   |                     (21.0242 MB/s)|
+-----------------------------------------------------------------------+
+--------------------------------------+
|  Inner_Iter|   Time(sec)|    rms[Rho]|
+--------------------------------------+
|        1060|  1.2268e-01|   -4.628437|
|        1070|  1.2213e-01|   -4.679402|
|        1080|  1.2171e-01|   -4.670122|
|        1090|  1.2135e-01|   -4.668630|
|        1100|  1.2085e-01|   -4.729469|
+-----------------------------------------------------------------------+
|        File Writing Summary       |              Filename             |
+-----------------------------------------------------------------------+
|SU2 binary restart                 |restart_flow_databladeVALIDATION_Blade_25.dat|
|                                   |                     (12002.2 MB/s)|
|Paraview                           |volume_flow_databladeVALIDATION_Blade_25.vtu|
|                                   |                     (884.282 MB/s)|
|Paraview surface                   |surface_flowdatabladeVALIDATION_Blade_25.vtu|
|                                   |                     (93.6547 MB/s)|
|SU2 ASCII restart                  |restart_flow_databladeVALIDATION_Blade_25.csv|
|                                   |                      (21.091 MB/s)|
|CSV file                           |surface_flowdatabladeVALIDATION_Blade_25.csv|
|                                   |                     (19.9547 MB/s)|
+-----------------------------------------------------------------------+
+--------------------------------------+
|  Inner_Iter|   Time(sec)|    rms[Rho]|
+--------------------------------------+
|        1110|  1.2266e-01|   -4.722626|
|        1120|  1.2232e-01|   -4.626953|
|        1130|  1.2183e-01|   -4.708667|
|        1140|  1.2132e-01|   -4.712204|
|        1150|  1.2088e-01|   -4.677643|
+-----------------------------------------------------------------------+
|        File Writing Summary       |              Filename             |
+-----------------------------------------------------------------------+
|SU2 binary restart                 |restart_flow_databladeVALIDATION_Blade_25.dat|
|                                   |                     (13814.5 MB/s)|
|Paraview                           |volume_flow_databladeVALIDATION_Blade_25.vtu|
|                                   |                      (1136.5 MB/s)|
|Paraview surface                   |surface_flowdatabladeVALIDATION_Blade_25.vtu|
|                                   |                     (131.146 MB/s)|
|SU2 ASCII restart                  |restart_flow_databladeVALIDATION_Blade_25.csv|
|                                   |                     (21.4032 MB/s)|
|CSV file                           |surface_flowdatabladeVALIDATION_Blade_25.csv|
|                                   |                     (19.2264 MB/s)|
+-----------------------------------------------------------------------+
+--------------------------------------+
|  Inner_Iter|   Time(sec)|    rms[Rho]|
+--------------------------------------+
|        1160|  1.2263e-01|   -4.652931|
|        1170|  1.2217e-01|   -4.734772|
|        1180|  1.2175e-01|   -4.749320|
|        1190|  1.2139e-01|   -4.692927|
|        1200|  1.2099e-01|   -4.739261|
+-----------------------------------------------------------------------+
|        File Writing Summary       |              Filename             |
+-----------------------------------------------------------------------+
|SU2 binary restart                 |restart_flow_databladeVALIDATION_Blade_25.dat|
|                                   |                     (14423.1 MB/s)|
|Paraview                           |volume_flow_databladeVALIDATION_Blade_25.vtu|
|                                   |                     (215.927 MB/s)|
|Paraview surface                   |surface_flowdatabladeVALIDATION_Blade_25.vtu|
|                                   |                     (85.6829 MB/s)|
|SU2 ASCII restart                  |restart_flow_databladeVALIDATION_Blade_25.csv|
|                                   |                     (21.2182 MB/s)|
|CSV file                           |surface_flowdatabladeVALIDATION_Blade_25.csv|
|                                   |                     (19.4122 MB/s)|
+-----------------------------------------------------------------------+
+--------------------------------------+
|  Inner_Iter|   Time(sec)|    rms[Rho]|
+--------------------------------------+
|        1210|  1.2270e-01|   -4.759504|
|        1220|  1.2227e-01|   -4.740529|
|        1230|  1.2192e-01|   -4.699693|
|        1240|  1.2146e-01|   -4.804733|
|        1250|  1.2111e-01|   -4.824753|
+-----------------------------------------------------------------------+
|        File Writing Summary       |              Filename             |
+-----------------------------------------------------------------------+
|SU2 binary restart                 |restart_flow_databladeVALIDATION_Blade_25.dat|
|                                   |                       (12782 MB/s)|
|Paraview                           |volume_flow_databladeVALIDATION_Blade_25.vtu|
|                                   |                     (913.822 MB/s)|
|Paraview surface                   |surface_flowdatabladeVALIDATION_Blade_25.vtu|
|                                   |                     (94.6623 MB/s)|
|SU2 ASCII restart                  |restart_flow_databladeVALIDATION_Blade_25.csv|
|                                   |                      (20.589 MB/s)|
|CSV file                           |surface_flowdatabladeVALIDATION_Blade_25.csv|
|                                   |                     (21.0274 MB/s)|
+-----------------------------------------------------------------------+
+--------------------------------------+
|  Inner_Iter|   Time(sec)|    rms[Rho]|
+--------------------------------------+
|        1260|  1.2280e-01|   -4.762823|
|        1270|  1.2236e-01|   -4.848695|
|        1280|  1.2193e-01|   -4.854830|
|        1290|  1.2156e-01|   -4.828163|
|        1300|  1.2120e-01|   -4.799885|
+-----------------------------------------------------------------------+
|        File Writing Summary       |              Filename             |
+-----------------------------------------------------------------------+
|SU2 binary restart                 |restart_flow_databladeVALIDATION_Blade_25.dat|
|                                   |                     (14283.4 MB/s)|
|Paraview                           |volume_flow_databladeVALIDATION_Blade_25.vtu|
|                                   |                     (939.812 MB/s)|
|Paraview surface                   |surface_flowdatabladeVALIDATION_Blade_25.vtu|
|                                   |                      (90.945 MB/s)|
|SU2 ASCII restart                  |restart_flow_databladeVALIDATION_Blade_25.csv|
|                                   |                     (21.3419 MB/s)|
|CSV file                           |surface_flowdatabladeVALIDATION_Blade_25.csv|
|                                   |                     (19.3662 MB/s)|
+-----------------------------------------------------------------------+
+--------------------------------------+
|  Inner_Iter|   Time(sec)|    rms[Rho]|
+--------------------------------------+
|        1310|  1.2278e-01|   -4.797995|
|        1320|  1.2241e-01|   -4.826505|
|        1330|  1.2208e-01|   -4.839249|
|        1340|  1.2165e-01|   -4.897870|
|        1350|  1.2126e-01|   -4.914838|
+-----------------------------------------------------------------------+
|        File Writing Summary       |              Filename             |
+-----------------------------------------------------------------------+
|SU2 binary restart                 |restart_flow_databladeVALIDATION_Blade_25.dat|
|                                   |                     (13311.5 MB/s)|
|Paraview                           |volume_flow_databladeVALIDATION_Blade_25.vtu|
|                                   |                      (1004.4 MB/s)|
|Paraview surface                   |surface_flowdatabladeVALIDATION_Blade_25.vtu|
|                                   |                     (105.642 MB/s)|
|SU2 ASCII restart                  |restart_flow_databladeVALIDATION_Blade_25.csv|
|                                   |                     (21.3498 MB/s)|
|CSV file                           |surface_flowdatabladeVALIDATION_Blade_25.csv|
|                                   |                     (20.1505 MB/s)|
+-----------------------------------------------------------------------+
+--------------------------------------+
|  Inner_Iter|   Time(sec)|    rms[Rho]|
+--------------------------------------+
|        1360|  1.2271e-01|   -4.921825|
|        1370|  1.2234e-01|   -4.962839|
|        1380|  1.2191e-01|   -4.977437|
|        1390|  1.2151e-01|   -4.970315|
|        1400|  1.2116e-01|   -4.941858|
+-----------------------------------------------------------------------+
|        File Writing Summary       |              Filename             |
+-----------------------------------------------------------------------+
|SU2 binary restart                 |restart_flow_databladeVALIDATION_Blade_25.dat|
|                                   |                     (12940.1 MB/s)|
|Paraview                           |volume_flow_databladeVALIDATION_Blade_25.vtu|
|                                   |                      (1027.4 MB/s)|
|Paraview surface                   |surface_flowdatabladeVALIDATION_Blade_25.vtu|
|                                   |                     (130.507 MB/s)|
|SU2 ASCII restart                  |restart_flow_databladeVALIDATION_Blade_25.csv|
|                                   |                     (21.7451 MB/s)|
|CSV file                           |surface_flowdatabladeVALIDATION_Blade_25.csv|
|                                   |                     (19.3688 MB/s)|
+-----------------------------------------------------------------------+
+--------------------------------------+
|  Inner_Iter|   Time(sec)|    rms[Rho]|
+--------------------------------------+
|        1410|  1.2248e-01|   -4.978223|
|        1420|  1.2209e-01|   -4.984136|
|        1430|  1.2172e-01|   -4.982242|
|        1440|  1.2138e-01|   -4.983389|
|        1450|  1.2103e-01|   -5.014978|
+-----------------------------------------------------------------------+
|        File Writing Summary       |              Filename             |
+-----------------------------------------------------------------------+
|SU2 binary restart                 |restart_flow_databladeVALIDATION_Blade_25.dat|
|                                   |                     (14032.5 MB/s)|
|Paraview                           |volume_flow_databladeVALIDATION_Blade_25.vtu|
|                                   |                     (1016.98 MB/s)|
|Paraview surface                   |surface_flowdatabladeVALIDATION_Blade_25.vtu|
|                                   |                     (117.283 MB/s)|
|SU2 ASCII restart                  |restart_flow_databladeVALIDATION_Blade_25.csv|
|                                   |                     (21.6066 MB/s)|
|CSV file                           |surface_flowdatabladeVALIDATION_Blade_25.csv|
|                                   |                     (20.1001 MB/s)|
+-----------------------------------------------------------------------+
+--------------------------------------+
|  Inner_Iter|   Time(sec)|    rms[Rho]|
+--------------------------------------+
|        1460|  1.2231e-01|   -5.014363|
|        1470|  1.2201e-01|   -5.000921|
|        1480|  1.2167e-01|   -5.016906|
|        1490|  1.2128e-01|   -5.039911|
|        1500|  1.2094e-01|   -5.033015|
+-----------------------------------------------------------------------+
|        File Writing Summary       |              Filename             |
+-----------------------------------------------------------------------+
|SU2 binary restart                 |restart_flow_databladeVALIDATION_Blade_25.dat|
|                                   |                     (12830.4 MB/s)|
|Paraview                           |volume_flow_databladeVALIDATION_Blade_25.vtu|
|                                   |                     (1019.89 MB/s)|
|Paraview surface                   |surface_flowdatabladeVALIDATION_Blade_25.vtu|
|                                   |                      (102.98 MB/s)|
|SU2 ASCII restart                  |restart_flow_databladeVALIDATION_Blade_25.csv|
|                                   |                     (21.4201 MB/s)|
|CSV file                           |surface_flowdatabladeVALIDATION_Blade_25.csv|
|                                   |                     (18.9947 MB/s)|
+-----------------------------------------------------------------------+
+--------------------------------------+
|  Inner_Iter|   Time(sec)|    rms[Rho]|
+--------------------------------------+
|        1510|  1.2229e-01|   -5.021791|
|        1520|  1.2199e-01|   -5.064261|
|        1530|  1.2168e-01|   -5.088852|
|        1540|  1.2144e-01|   -5.051208|
|        1550|  1.2120e-01|   -5.074671|
+-----------------------------------------------------------------------+
|        File Writing Summary       |              Filename             |
+-----------------------------------------------------------------------+
|SU2 binary restart                 |restart_flow_databladeVALIDATION_Blade_25.dat|
|                                   |                     (12465.2 MB/s)|
|Paraview                           |volume_flow_databladeVALIDATION_Blade_25.vtu|
|                                   |                     (1036.58 MB/s)|
|Paraview surface                   |surface_flowdatabladeVALIDATION_Blade_25.vtu|
|                                   |                      (102.09 MB/s)|
|SU2 ASCII restart                  |restart_flow_databladeVALIDATION_Blade_25.csv|
|                                   |                     (20.9448 MB/s)|
|CSV file                           |surface_flowdatabladeVALIDATION_Blade_25.csv|
|                                   |                     (19.9154 MB/s)|
+-----------------------------------------------------------------------+
+--------------------------------------+
|  Inner_Iter|   Time(sec)|    rms[Rho]|
+--------------------------------------+
|        1560|  1.2257e-01|   -5.072613|
|        1570|  1.2221e-01|   -5.117500|
|        1580|  1.2188e-01|   -5.086607|
|        1590|  1.2157e-01|   -5.094297|
|        1600|  1.2120e-01|   -5.130201|
+-----------------------------------------------------------------------+
|        File Writing Summary       |              Filename             |
+-----------------------------------------------------------------------+
|SU2 binary restart                 |restart_flow_databladeVALIDATION_Blade_25.dat|
|                                   |                     (13301.2 MB/s)|
|Paraview                           |volume_flow_databladeVALIDATION_Blade_25.vtu|
|                                   |                     (976.197 MB/s)|
|Paraview surface                   |surface_flowdatabladeVALIDATION_Blade_25.vtu|
|                                   |                     (125.867 MB/s)|
|SU2 ASCII restart                  |restart_flow_databladeVALIDATION_Blade_25.csv|
|                                   |                     (21.2314 MB/s)|
|CSV file                           |surface_flowdatabladeVALIDATION_Blade_25.csv|
|                                   |                     (22.0154 MB/s)|
+-----------------------------------------------------------------------+
+--------------------------------------+
|  Inner_Iter|   Time(sec)|    rms[Rho]|
+--------------------------------------+
|        1610|  1.2248e-01|   -5.066364|
|        1620|  1.2216e-01|   -5.108684|
|        1630|  1.2179e-01|   -5.144024|
|        1640|  1.2147e-01|   -5.134337|
|        1650|  1.2121e-01|   -5.088998|
+-----------------------------------------------------------------------+
|        File Writing Summary       |              Filename             |
+-----------------------------------------------------------------------+
|SU2 binary restart                 |restart_flow_databladeVALIDATION_Blade_25.dat|
|                                   |                     (12813.3 MB/s)|
|Paraview                           |volume_flow_databladeVALIDATION_Blade_25.vtu|
|                                   |                      (1059.1 MB/s)|
|Paraview surface                   |surface_flowdatabladeVALIDATION_Blade_25.vtu|
|                                   |                     (93.6111 MB/s)|
|SU2 ASCII restart                  |restart_flow_databladeVALIDATION_Blade_25.csv|
|                                   |                     (21.2385 MB/s)|
|CSV file                           |surface_flowdatabladeVALIDATION_Blade_25.csv|
|                                   |                     (21.0325 MB/s)|
+-----------------------------------------------------------------------+
+--------------------------------------+
|  Inner_Iter|   Time(sec)|    rms[Rho]|
+--------------------------------------+
|        1660|  1.2248e-01|   -5.136057|
|        1670|  1.2229e-01|   -5.136820|
|        1680|  1.2198e-01|   -5.194779|
|        1690|  1.2169e-01|   -5.167802|
|        1700|  1.2143e-01|   -5.144832|
+-----------------------------------------------------------------------+
|        File Writing Summary       |              Filename             |
+-----------------------------------------------------------------------+
|SU2 binary restart                 |restart_flow_databladeVALIDATION_Blade_25.dat|
|                                   |                     (14469.1 MB/s)|
|Paraview                           |volume_flow_databladeVALIDATION_Blade_25.vtu|
|                                   |                     (1060.74 MB/s)|
|Paraview surface                   |surface_flowdatabladeVALIDATION_Blade_25.vtu|
|                                   |                     (101.084 MB/s)|
|SU2 ASCII restart                  |restart_flow_databladeVALIDATION_Blade_25.csv|
|                                   |                     (21.2708 MB/s)|
|CSV file                           |surface_flowdatabladeVALIDATION_Blade_25.csv|
|                                   |                     (21.2121 MB/s)|
+-----------------------------------------------------------------------+
+--------------------------------------+
|  Inner_Iter|   Time(sec)|    rms[Rho]|
+--------------------------------------+
|        1710|  1.2253e-01|   -5.238359|
|        1720|  1.2234e-01|   -5.191601|
|        1730|  1.2216e-01|   -5.236523|
|        1740|  1.2200e-01|   -5.242173|
|        1750|  1.2170e-01|   -5.324665|
+-----------------------------------------------------------------------+
|        File Writing Summary       |              Filename             |
+-----------------------------------------------------------------------+
|SU2 binary restart                 |restart_flow_databladeVALIDATION_Blade_25.dat|
|                                   |                     (12316.6 MB/s)|
|Paraview                           |volume_flow_databladeVALIDATION_Blade_25.vtu|
|                                   |                     (934.375 MB/s)|
|Paraview surface                   |surface_flowdatabladeVALIDATION_Blade_25.vtu|
|                                   |                     (111.238 MB/s)|
|SU2 ASCII restart                  |restart_flow_databladeVALIDATION_Blade_25.csv|
|                                   |                     (21.1094 MB/s)|
|CSV file                           |surface_flowdatabladeVALIDATION_Blade_25.csv|
|                                   |                     (19.0062 MB/s)|
+-----------------------------------------------------------------------+
+--------------------------------------+
|  Inner_Iter|   Time(sec)|    rms[Rho]|
+--------------------------------------+
|        1760|  1.2282e-01|   -5.317918|
|        1770|  1.2260e-01|   -5.262880|
|        1780|  1.2237e-01|   -5.356147|
|        1790|  1.2208e-01|   -5.375039|
|        1800|  1.2181e-01|   -5.337866|
+-----------------------------------------------------------------------+
|        File Writing Summary       |              Filename             |
+-----------------------------------------------------------------------+
|SU2 binary restart                 |restart_flow_databladeVALIDATION_Blade_25.dat|
|                                   |                     (15616.2 MB/s)|
|Paraview                           |volume_flow_databladeVALIDATION_Blade_25.vtu|
|                                   |                     (1069.39 MB/s)|
|Paraview surface                   |surface_flowdatabladeVALIDATION_Blade_25.vtu|
|                                   |                     (104.797 MB/s)|
|SU2 ASCII restart                  |restart_flow_databladeVALIDATION_Blade_25.csv|
|                                   |                     (22.0069 MB/s)|
|CSV file                           |surface_flowdatabladeVALIDATION_Blade_25.csv|
|                                   |                     (19.6243 MB/s)|
+-----------------------------------------------------------------------+
+--------------------------------------+
|  Inner_Iter|   Time(sec)|    rms[Rho]|
+--------------------------------------+
|        1810|  1.2287e-01|   -5.299978|
|        1820|  1.2254e-01|   -5.373870|
|        1830|  1.2224e-01|   -5.368655|
|        1840|  1.2197e-01|   -5.326089|
|        1850|  1.2169e-01|   -5.404061|
+-----------------------------------------------------------------------+
|        File Writing Summary       |              Filename             |
+-----------------------------------------------------------------------+
|SU2 binary restart                 |restart_flow_databladeVALIDATION_Blade_25.dat|
|                                   |                     (9799.16 MB/s)|
|Paraview                           |volume_flow_databladeVALIDATION_Blade_25.vtu|
|                                   |                     (1030.64 MB/s)|
|Paraview surface                   |surface_flowdatabladeVALIDATION_Blade_25.vtu|
|                                   |                     (83.3977 MB/s)|
|SU2 ASCII restart                  |restart_flow_databladeVALIDATION_Blade_25.csv|
|                                   |                     (21.1846 MB/s)|
|CSV file                           |surface_flowdatabladeVALIDATION_Blade_25.csv|
|                                   |                     (21.1291 MB/s)|
+-----------------------------------------------------------------------+
+--------------------------------------+
|  Inner_Iter|   Time(sec)|    rms[Rho]|
+--------------------------------------+
|        1860|  1.2282e-01|   -5.440093|
|        1870|  1.2251e-01|   -5.523442|
|        1880|  1.2231e-01|   -5.503136|
|        1890|  1.2228e-01|   -5.422334|
|        1900|  1.2208e-01|   -5.482064|
+-----------------------------------------------------------------------+
|        File Writing Summary       |              Filename             |
+-----------------------------------------------------------------------+
|SU2 binary restart                 |restart_flow_databladeVALIDATION_Blade_25.dat|
|                                   |                     (12810.4 MB/s)|
|Paraview                           |volume_flow_databladeVALIDATION_Blade_25.vtu|
|                                   |                     (899.818 MB/s)|
|Paraview surface                   |surface_flowdatabladeVALIDATION_Blade_25.vtu|
|                                   |                     (85.2768 MB/s)|
|SU2 ASCII restart                  |restart_flow_databladeVALIDATION_Blade_25.csv|
|                                   |                     (21.1703 MB/s)|
|CSV file                           |surface_flowdatabladeVALIDATION_Blade_25.csv|
|                                   |                     (21.1476 MB/s)|
+-----------------------------------------------------------------------+
+--------------------------------------+
|  Inner_Iter|   Time(sec)|    rms[Rho]|
+--------------------------------------+
|        1910|  1.2315e-01|   -5.472723|
|        1920|  1.2289e-01|   -5.437071|
|        1930|  1.2264e-01|   -5.475030|
|        1940|  1.2235e-01|   -5.528813|
|        1950|  1.2207e-01|   -5.534317|
+-----------------------------------------------------------------------+
|        File Writing Summary       |              Filename             |
+-----------------------------------------------------------------------+
|SU2 binary restart                 |restart_flow_databladeVALIDATION_Blade_25.dat|
|                                   |                     (12302.6 MB/s)|
|Paraview                           |volume_flow_databladeVALIDATION_Blade_25.vtu|
|                                   |                     (1013.31 MB/s)|
|Paraview surface                   |surface_flowdatabladeVALIDATION_Blade_25.vtu|
|                                   |                     (83.8647 MB/s)|
|SU2 ASCII restart                  |restart_flow_databladeVALIDATION_Blade_25.csv|
|                                   |                     (21.6619 MB/s)|
|CSV file                           |surface_flowdatabladeVALIDATION_Blade_25.csv|
|                                   |                     (20.3478 MB/s)|
+-----------------------------------------------------------------------+
+--------------------------------------+
|  Inner_Iter|   Time(sec)|    rms[Rho]|
+--------------------------------------+
|        1960|  1.2309e-01|   -5.520833|
|        1970|  1.2281e-01|   -5.580124|
|        1980|  1.2254e-01|   -5.582359|
|        1990|  1.2229e-01|   -5.550377|
|        2000|  1.2209e-01|   -5.538982|
+-----------------------------------------------------------------------+
|        File Writing Summary       |              Filename             |
+-----------------------------------------------------------------------+
|SU2 binary restart                 |restart_flow_databladeVALIDATION_Blade_25.dat|
|                                   |                     (13281.8 MB/s)|
|Paraview                           |volume_flow_databladeVALIDATION_Blade_25.vtu|
|                                   |                     (935.294 MB/s)|
|Paraview surface                   |surface_flowdatabladeVALIDATION_Blade_25.vtu|
|                                   |                     (76.6179 MB/s)|
|SU2 ASCII restart                  |restart_flow_databladeVALIDATION_Blade_25.csv|
|                                   |                     (21.2012 MB/s)|
|CSV file                           |surface_flowdatabladeVALIDATION_Blade_25.csv|
|                                   |                     (18.2198 MB/s)|
+-----------------------------------------------------------------------+
+--------------------------------------+
|  Inner_Iter|   Time(sec)|    rms[Rho]|
+--------------------------------------+
|        2010|  1.2306e-01|   -5.584746|
|        2020|  1.2281e-01|   -5.578432|
|        2030|  1.2260e-01|   -5.554617|
|        2040|  1.2234e-01|   -5.609373|
|        2050|  1.2225e-01|   -5.555908|
+-----------------------------------------------------------------------+
|        File Writing Summary       |              Filename             |
+-----------------------------------------------------------------------+
|SU2 binary restart                 |restart_flow_databladeVALIDATION_Blade_25.dat|
|                                   |                     (10051.5 MB/s)|
|Paraview                           |volume_flow_databladeVALIDATION_Blade_25.vtu|
|                                   |                     (838.339 MB/s)|
|Paraview surface                   |surface_flowdatabladeVALIDATION_Blade_25.vtu|
|                                   |                     (78.6193 MB/s)|
|SU2 ASCII restart                  |restart_flow_databladeVALIDATION_Blade_25.csv|
|                                   |                     (20.7753 MB/s)|
|CSV file                           |surface_flowdatabladeVALIDATION_Blade_25.csv|
|                                   |                     (21.4728 MB/s)|
+-----------------------------------------------------------------------+
+--------------------------------------+
|  Inner_Iter|   Time(sec)|    rms[Rho]|
+--------------------------------------+
|        2060|  1.2326e-01|   -5.566811|
|        2070|  1.2303e-01|   -5.535739|
|        2080|  1.2276e-01|   -5.599680|
|        2090|  1.2249e-01|   -5.606483|
|        2100|  1.2232e-01|   -5.576115|
+-----------------------------------------------------------------------+
|        File Writing Summary       |              Filename             |
+-----------------------------------------------------------------------+
|SU2 binary restart                 |restart_flow_databladeVALIDATION_Blade_25.dat|
|                                   |                     (11735.3 MB/s)|
|Paraview                           |volume_flow_databladeVALIDATION_Blade_25.vtu|
|                                   |                     (1121.87 MB/s)|
|Paraview surface                   |surface_flowdatabladeVALIDATION_Blade_25.vtu|
|                                   |                     (94.2884 MB/s)|
|SU2 ASCII restart                  |restart_flow_databladeVALIDATION_Blade_25.csv|
|                                   |                     (21.3189 MB/s)|
|CSV file                           |surface_flowdatabladeVALIDATION_Blade_25.csv|
|                                   |                     (20.1242 MB/s)|
+-----------------------------------------------------------------------+
+--------------------------------------+
|  Inner_Iter|   Time(sec)|    rms[Rho]|
+--------------------------------------+
|        2110|  1.2331e-01|   -5.616080|
|        2120|  1.2312e-01|   -5.583903|
|        2130|  1.2287e-01|   -5.637218|
|        2140|  1.2261e-01|   -5.640220|
|        2150|  1.2243e-01|   -5.617268|
+-----------------------------------------------------------------------+
|        File Writing Summary       |              Filename             |
+-----------------------------------------------------------------------+
|SU2 binary restart                 |restart_flow_databladeVALIDATION_Blade_25.dat|
|                                   |                     (8184.79 MB/s)|
|Paraview                           |volume_flow_databladeVALIDATION_Blade_25.vtu|
|                                   |                     (685.161 MB/s)|
|Paraview surface                   |surface_flowdatabladeVALIDATION_Blade_25.vtu|
|                                   |                     (32.2497 MB/s)|
|SU2 ASCII restart                  |restart_flow_databladeVALIDATION_Blade_25.csv|
|                                   |                     (20.9302 MB/s)|
|CSV file                           |surface_flowdatabladeVALIDATION_Blade_25.csv|
|                                   |                     (19.7653 MB/s)|
+-----------------------------------------------------------------------+
+--------------------------------------+
|  Inner_Iter|   Time(sec)|    rms[Rho]|
+--------------------------------------+
|        2160|  1.2338e-01|   -5.622409|
|        2170|  1.2312e-01|   -5.688434|
|        2180|  1.2285e-01|   -5.706376|
|        2190|  1.2266e-01|   -5.674237|
|        2200|  1.2247e-01|   -5.655380|
+-----------------------------------------------------------------------+
|        File Writing Summary       |              Filename             |
+-----------------------------------------------------------------------+
|SU2 binary restart                 |restart_flow_databladeVALIDATION_Blade_25.dat|
|                                   |                     (13988.1 MB/s)|
|Paraview                           |volume_flow_databladeVALIDATION_Blade_25.vtu|
|                                   |                     (981.577 MB/s)|
|Paraview surface                   |surface_flowdatabladeVALIDATION_Blade_25.vtu|
|                                   |                     (89.5265 MB/s)|
|SU2 ASCII restart                  |restart_flow_databladeVALIDATION_Blade_25.csv|
|                                   |                     (22.0105 MB/s)|
|CSV file                           |surface_flowdatabladeVALIDATION_Blade_25.csv|
|                                   |                     (21.2593 MB/s)|
+-----------------------------------------------------------------------+
+--------------------------------------+
|  Inner_Iter|   Time(sec)|    rms[Rho]|
+--------------------------------------+
|        2210|  1.2330e-01|   -5.704583|
|        2220|  1.2306e-01|   -5.715621|
|        2230|  1.2283e-01|   -5.711482|
|        2240|  1.2266e-01|   -5.716950|
|        2250|  1.2247e-01|   -5.763001|
+-----------------------------------------------------------------------+
|        File Writing Summary       |              Filename             |
+-----------------------------------------------------------------------+
|SU2 binary restart                 |restart_flow_databladeVALIDATION_Blade_25.dat|
|                                   |                     (9438.93 MB/s)|
|Paraview                           |volume_flow_databladeVALIDATION_Blade_25.vtu|
|                                   |                     (871.678 MB/s)|
|Paraview surface                   |surface_flowdatabladeVALIDATION_Blade_25.vtu|
|                                   |                     (86.6468 MB/s)|
|SU2 ASCII restart                  |restart_flow_databladeVALIDATION_Blade_25.csv|
|                                   |                     (19.8949 MB/s)|
|CSV file                           |surface_flowdatabladeVALIDATION_Blade_25.csv|
|                                   |                     (20.8968 MB/s)|
+-----------------------------------------------------------------------+
+--------------------------------------+
|  Inner_Iter|   Time(sec)|    rms[Rho]|
+--------------------------------------+
|        2260|  1.2339e-01|   -5.767180|
|        2270|  1.2331e-01|   -5.706632|
|        2280|  1.2310e-01|   -5.752285|
|        2290|  1.2287e-01|   -5.754447|
|        2300|  1.2269e-01|   -5.736475|
+-----------------------------------------------------------------------+
|        File Writing Summary       |              Filename             |
+-----------------------------------------------------------------------+
|SU2 binary restart                 |restart_flow_databladeVALIDATION_Blade_25.dat|
|                                   |                     (12542.2 MB/s)|
|Paraview                           |volume_flow_databladeVALIDATION_Blade_25.vtu|
|                                   |                      (989.17 MB/s)|
|Paraview surface                   |surface_flowdatabladeVALIDATION_Blade_25.vtu|
|                                   |                     (95.9126 MB/s)|
|SU2 ASCII restart                  |restart_flow_databladeVALIDATION_Blade_25.csv|
|                                   |                     (20.7211 MB/s)|
|CSV file                           |surface_flowdatabladeVALIDATION_Blade_25.csv|
|                                   |                     (19.9838 MB/s)|
+-----------------------------------------------------------------------+
+--------------------------------------+
|  Inner_Iter|   Time(sec)|    rms[Rho]|
+--------------------------------------+
|        2310|  1.2359e-01|   -5.739444|
|        2320|  1.2335e-01|   -5.790636|
|        2330|  1.2312e-01|   -5.808641|
|        2340|  1.2298e-01|   -5.790654|
|        2350|  1.2275e-01|   -5.824033|
+-----------------------------------------------------------------------+
|        File Writing Summary       |              Filename             |
+-----------------------------------------------------------------------+
|SU2 binary restart                 |restart_flow_databladeVALIDATION_Blade_25.dat|
|                                   |                     (5742.65 MB/s)|
|Paraview                           |volume_flow_databladeVALIDATION_Blade_25.vtu|
[...]
+-----------------------------------------------------------------------+
|        File Writing Summary       |              Filename             |
+-----------------------------------------------------------------------+
|SU2 binary restart                 |restart_flow_databladeVALIDATION_Blade_25.dat|
|                                   |                     (12181.8 MB/s)|
|Paraview                           |volume_flow_databladeVALIDATION_Blade_25.vtu|
|                                   |                     (1050.28 MB/s)|
|Paraview surface                   |surface_flowdatabladeVALIDATION_Blade_25.vtu|
|                                   |                     (96.3689 MB/s)|
|SU2 ASCII restart                  |restart_flow_databladeVALIDATION_Blade_25.csv|
|                                   |                     (20.8618 MB/s)|
|CSV file                           |surface_flowdatabladeVALIDATION_Blade_25.csv|
|                                   |                      (21.647 MB/s)|
+-----------------------------------------------------------------------+
+--------------------------------------+
|  Inner_Iter|   Time(sec)|    rms[Rho]|
+--------------------------------------+
|        3410|  1.2410e-01|   -6.513636|
|        3420|  1.2397e-01|   -6.488967|
|        3430|  1.2380e-01|   -6.562961|
|        3440|  1.2371e-01|   -6.527206|
|        3450|  1.2360e-01|   -6.516712|
+-----------------------------------------------------------------------+
|        File Writing Summary       |              Filename             |
+-----------------------------------------------------------------------+
|SU2 binary restart                 |restart_flow_databladeVALIDATION_Blade_25.dat|
|                                   |                     (12494.1 MB/s)|
|Paraview                           |volume_flow_databladeVALIDATION_Blade_25.vtu|
|                                   |                     (1104.75 MB/s)|
|Paraview surface                   |surface_flowdatabladeVALIDATION_Blade_25.vtu|
|                                   |                     (95.7374 MB/s)|
|SU2 ASCII restart                  |restart_flow_databladeVALIDATION_Blade_25.csv|
|                                   |                     (21.3956 MB/s)|
|CSV file                           |surface_flowdatabladeVALIDATION_Blade_25.csv|
|                                   |                     (21.4601 MB/s)|
+-----------------------------------------------------------------------+
+--------------------------------------+
|  Inner_Iter|   Time(sec)|    rms[Rho]|
+--------------------------------------+
|        3460|  1.2421e-01|   -6.521850|
|        3470|  1.2411e-01|   -6.568762|
|        3480|  1.2401e-01|   -6.608831|
|        3490|  1.2391e-01|   -6.618030|
|        3500|  1.2380e-01|   -6.634369|
+-----------------------------------------------------------------------+
|        File Writing Summary       |              Filename             |
+-----------------------------------------------------------------------+
|SU2 binary restart                 |restart_flow_databladeVALIDATION_Blade_25.dat|
|                                   |                     (12144.1 MB/s)|
|Paraview                           |volume_flow_databladeVALIDATION_Blade_25.vtu|
|                                   |                      (1053.5 MB/s)|
|Paraview surface                   |surface_flowdatabladeVALIDATION_Blade_25.vtu|
|                                   |                     (113.725 MB/s)|
|SU2 ASCII restart                  |restart_flow_databladeVALIDATION_Blade_25.csv|
|                                   |                     (20.9851 MB/s)|
|CSV file                           |surface_flowdatabladeVALIDATION_Blade_25.csv|
|                                   |                     (21.3802 MB/s)|
+-----------------------------------------------------------------------+
+--------------------------------------+
|  Inner_Iter|   Time(sec)|    rms[Rho]|
+--------------------------------------+
|        3510|  1.2438e-01|   -6.687054|
|        3520|  1.2423e-01|   -6.707405|
|        3530|  1.2406e-01|   -6.741409|
|        3540|  1.2398e-01|   -6.713184|
|        3550|  1.2388e-01|   -6.720142|
+-----------------------------------------------------------------------+
|        File Writing Summary       |              Filename             |
+-----------------------------------------------------------------------+
|SU2 binary restart                 |restart_flow_databladeVALIDATION_Blade_25.dat|
|                                   |                     (11300.3 MB/s)|
|Paraview                           |volume_flow_databladeVALIDATION_Blade_25.vtu|
|                                   |                     (941.207 MB/s)|
|Paraview surface                   |surface_flowdatabladeVALIDATION_Blade_25.vtu|
|                                   |                     (42.2676 MB/s)|
|SU2 ASCII restart                  |restart_flow_databladeVALIDATION_Blade_25.csv|
|                                   |                     (21.2095 MB/s)|
|CSV file                           |surface_flowdatabladeVALIDATION_Blade_25.csv|
|                                   |                     (19.4687 MB/s)|
+-----------------------------------------------------------------------+
+--------------------------------------+
|  Inner_Iter|   Time(sec)|    rms[Rho]|
+--------------------------------------+
|        3560|  1.2447e-01|   -6.732229|
|        3570|  1.2437e-01|   -6.758590|
|        3580|  1.2427e-01|   -6.787980|
|        3590|  1.2421e-01|   -6.804366|
|        3600|  1.2412e-01|   -6.807899|
+-----------------------------------------------------------------------+
|        File Writing Summary       |              Filename             |
+-----------------------------------------------------------------------+
|SU2 binary restart                 |restart_flow_databladeVALIDATION_Blade_25.dat|
|                                   |                     (11332.9 MB/s)|
|Paraview                           |volume_flow_databladeVALIDATION_Blade_25.vtu|
|                                   |                      (995.98 MB/s)|
|Paraview surface                   |surface_flowdatabladeVALIDATION_Blade_25.vtu|
|                                   |                     (97.8831 MB/s)|
|SU2 ASCII restart                  |restart_flow_databladeVALIDATION_Blade_25.csv|
|                                   |                     (21.2231 MB/s)|
|CSV file                           |surface_flowdatabladeVALIDATION_Blade_25.csv|
|                                   |                     (21.2388 MB/s)|
+-----------------------------------------------------------------------+
+--------------------------------------+
|  Inner_Iter|   Time(sec)|    rms[Rho]|
+--------------------------------------+
|        3610|  1.2471e-01|   -6.817625|
|        3620|  1.2460e-01|   -6.840459|
|        3630|  1.2450e-01|   -6.858822|
|        3640|  1.2434e-01|   -6.892151|
|        3650|  1.2420e-01|   -6.878947|
+-----------------------------------------------------------------------+
|        File Writing Summary       |              Filename             |
+-----------------------------------------------------------------------+
|SU2 binary restart                 |restart_flow_databladeVALIDATION_Blade_25.dat|
|                                   |                     (11509.8 MB/s)|
|Paraview                           |volume_flow_databladeVALIDATION_Blade_25.vtu|
|                                   |                     (1111.16 MB/s)|
|Paraview surface                   |surface_flowdatabladeVALIDATION_Blade_25.vtu|
|                                   |                     (93.7057 MB/s)|
|SU2 ASCII restart                  |restart_flow_databladeVALIDATION_Blade_25.csv|
|                                   |                      (21.453 MB/s)|
|CSV file                           |surface_flowdatabladeVALIDATION_Blade_25.csv|
|                                   |                     (21.0591 MB/s)|
+-----------------------------------------------------------------------+
+--------------------------------------+
|  Inner_Iter|   Time(sec)|    rms[Rho]|
+--------------------------------------+
|        3660|  1.2473e-01|   -6.887883|
|        3670|  1.2458e-01|   -6.902800|
|        3680|  1.2443e-01|   -6.899767|
|        3690|  1.2431e-01|   -6.903141|
|        3700|  1.2414e-01|   -6.923822|
+-----------------------------------------------------------------------+
|        File Writing Summary       |              Filename             |
+-----------------------------------------------------------------------+
|SU2 binary restart                 |restart_flow_databladeVALIDATION_Blade_25.dat|
|                                   |                     (11963.1 MB/s)|
|Paraview                           |volume_flow_databladeVALIDATION_Blade_25.vtu|
|                                   |                      (1014.8 MB/s)|
|Paraview surface                   |surface_flowdatabladeVALIDATION_Blade_25.vtu|
|                                   |                     (99.7831 MB/s)|
|SU2 ASCII restart                  |restart_flow_databladeVALIDATION_Blade_25.csv|
|                                   |                     (21.6695 MB/s)|
|CSV file                           |surface_flowdatabladeVALIDATION_Blade_25.csv|
|                                   |                      (19.422 MB/s)|
+-----------------------------------------------------------------------+
+--------------------------------------+
|  Inner_Iter|   Time(sec)|    rms[Rho]|
+--------------------------------------+
|        3710|  1.2464e-01|   -6.926482|
|        3720|  1.2450e-01|   -6.914472|
|        3730|  1.2436e-01|   -6.921772|
|        3740|  1.2420e-01|   -6.930409|
|        3750|  1.2405e-01|   -6.924141|
+-----------------------------------------------------------------------+
|        File Writing Summary       |              Filename             |
+-----------------------------------------------------------------------+
|SU2 binary restart                 |restart_flow_databladeVALIDATION_Blade_25.dat|
|                                   |                     (12329.8 MB/s)|
|Paraview                           |volume_flow_databladeVALIDATION_Blade_25.vtu|
|                                   |                     (1084.86 MB/s)|
|Paraview surface                   |surface_flowdatabladeVALIDATION_Blade_25.vtu|
|                                   |                     (105.698 MB/s)|
|SU2 ASCII restart                  |restart_flow_databladeVALIDATION_Blade_25.csv|
|                                   |                     (20.6779 MB/s)|
|CSV file                           |surface_flowdatabladeVALIDATION_Blade_25.csv|
|                                   |                     (19.0884 MB/s)|
+-----------------------------------------------------------------------+
+--------------------------------------+
|  Inner_Iter|   Time(sec)|    rms[Rho]|
+--------------------------------------+
|        3760|  1.2460e-01|   -6.907088|
|        3770|  1.2446e-01|   -6.927843|
|        3780|  1.2431e-01|   -6.938923|
|        3790|  1.2417e-01|   -6.937799|
|        3800|  1.2404e-01|   -6.930005|
+-----------------------------------------------------------------------+
|        File Writing Summary       |              Filename             |
+-----------------------------------------------------------------------+
|SU2 binary restart                 |restart_flow_databladeVALIDATION_Blade_25.dat|
|                                   |                     (13489.5 MB/s)|
|Paraview                           |volume_flow_databladeVALIDATION_Blade_25.vtu|
|                                   |                     (978.214 MB/s)|
|Paraview surface                   |surface_flowdatabladeVALIDATION_Blade_25.vtu|
|                                   |                     (93.7494 MB/s)|
|SU2 ASCII restart                  |restart_flow_databladeVALIDATION_Blade_25.csv|
|                                   |                     (20.9765 MB/s)|
|CSV file                           |surface_flowdatabladeVALIDATION_Blade_25.csv|
|                                   |                       (21.55 MB/s)|
+-----------------------------------------------------------------------+
+--------------------------------------+
|  Inner_Iter|   Time(sec)|    rms[Rho]|
+--------------------------------------+
|        3810|  1.2456e-01|   -6.957806|
|        3820|  1.2445e-01|   -6.937203|
|        3830|  1.2434e-01|   -6.943146|
|        3840|  1.2418e-01|   -6.961991|
|        3850|  1.2404e-01|   -6.955741|
+-----------------------------------------------------------------------+
|        File Writing Summary       |              Filename             |
+-----------------------------------------------------------------------+
|SU2 binary restart                 |restart_flow_databladeVALIDATION_Blade_25.dat|
|                                   |                     (12974.2 MB/s)|
|Paraview                           |volume_flow_databladeVALIDATION_Blade_25.vtu|
|                                   |                     (1055.12 MB/s)|
|Paraview surface                   |surface_flowdatabladeVALIDATION_Blade_25.vtu|
|                                   |                     (85.6585 MB/s)|
|SU2 ASCII restart                  |restart_flow_databladeVALIDATION_Blade_25.csv|
|                                   |                     (20.9952 MB/s)|
|CSV file                           |surface_flowdatabladeVALIDATION_Blade_25.csv|
|                                   |                     (18.4979 MB/s)|
+-----------------------------------------------------------------------+
+--------------------------------------+
|  Inner_Iter|   Time(sec)|    rms[Rho]|
+--------------------------------------+
|        3860|  1.2459e-01|   -6.935444|
|        3870|  1.2450e-01|   -6.958648|
|        3880|  1.2440e-01|   -6.959460|
|        3890|  1.2428e-01|   -6.976362|
|        3900|  1.2419e-01|   -6.957040|
+-----------------------------------------------------------------------+
|        File Writing Summary       |              Filename             |
+-----------------------------------------------------------------------+
|SU2 binary restart                 |restart_flow_databladeVALIDATION_Blade_25.dat|
|                                   |                     (11268.5 MB/s)|
|Paraview                           |volume_flow_databladeVALIDATION_Blade_25.vtu|
|                                   |                     (967.442 MB/s)|
|Paraview surface                   |surface_flowdatabladeVALIDATION_Blade_25.vtu|
|                                   |                     (86.5193 MB/s)|
|SU2 ASCII restart                  |restart_flow_databladeVALIDATION_Blade_25.csv|
|                                   |                     (20.7292 MB/s)|
|CSV file                           |surface_flowdatabladeVALIDATION_Blade_25.csv|
|                                   |                     (18.8898 MB/s)|
+-----------------------------------------------------------------------+
+--------------------------------------+
|  Inner_Iter|   Time(sec)|    rms[Rho]|
+--------------------------------------+
|        3910|  1.2471e-01|   -6.978821|
|        3920|  1.2465e-01|   -6.989887|
|        3930|  1.2461e-01|   -6.963737|
|        3940|  1.2452e-01|   -6.967798|
|        3950|  1.2443e-01|   -6.962394|
+-----------------------------------------------------------------------+
|        File Writing Summary       |              Filename             |
+-----------------------------------------------------------------------+
|SU2 binary restart                 |restart_flow_databladeVALIDATION_Blade_25.dat|
|                                   |                     (11477.7 MB/s)|
|Paraview                           |volume_flow_databladeVALIDATION_Blade_25.vtu|
|                                   |                     (1038.51 MB/s)|
|Paraview surface                   |surface_flowdatabladeVALIDATION_Blade_25.vtu|
|                                   |                      (108.29 MB/s)|
|SU2 ASCII restart                  |restart_flow_databladeVALIDATION_Blade_25.csv|
|                                   |                      (21.339 MB/s)|
|CSV file                           |surface_flowdatabladeVALIDATION_Blade_25.csv|
|                                   |                     (19.9294 MB/s)|
+-----------------------------------------------------------------------+
+--------------------------------------+
|  Inner_Iter|   Time(sec)|    rms[Rho]|
+--------------------------------------+
|        3957|  1.2494e-01|   -7.003350|

----------------------------- Solver Exit -------------------------------
All convergence criteria satisfied.
+-----------------------------------------------------------------------+
|      Convergence Field     |     Value    |   Criterion  |  Converged |
+-----------------------------------------------------------------------+
|                    rms[Rho]|      -7.00335|          < -7|         Yes|
+-----------------------------------------------------------------------+
-------------------------------------------------------------------------
+-----------------------------------------------------------------------+
|        File Writing Summary       |              Filename             |
+-----------------------------------------------------------------------+
|SU2 binary restart                 |restart_flow_databladeVALIDATION_Blade_25.dat|
|                                   |                     (13724.4 MB/s)|
|Paraview                           |volume_flow_databladeVALIDATION_Blade_25.vtu|
|                                   |                     (953.994 MB/s)|
|Paraview surface                   |surface_flowdatabladeVALIDATION_Blade_25.vtu|
|                                   |                     (96.9658 MB/s)|
|SU2 ASCII restart                  |restart_flow_databladeVALIDATION_Blade_25.csv|
|                                   |                     (21.3169 MB/s)|
|CSV file                           |surface_flowdatabladeVALIDATION_Blade_25.csv|
|                                   |                     (21.0459 MB/s)|
+-----------------------------------------------------------------------+

--------------------------- Finalizing Solver ---------------------------
Deleted CNumerics container.
Deleted CIntegration container.
Deleted CSolver container.
Deleted CIteration container.
Deleted CInterface container.
Deleted CGeometry container.
Deleted CFreeFormDefBox class.
Deleted CSurfaceMovement class.
Deleted CVolumetricMovement class.
Deleted CConfig container.
Deleted nInst container.
Deleted COutput class.
-------------------------------------------------------------------------


-------------------------- Performance Summary --------------------------
Simulation totals:
   Wall-clock time (hrs):    0.138208 |            Core-hrs:      1.6585
                   Cores:          12 |          DOFs/point:           5
             Points/core:     5442.25 |   Ghost points/core:     156.333
 Ghost/Owned Point Ratio:   0.0287259 | 

Preprocessing phase:
       Preproc. Time (s):    0.542586 |   Preproc. Time (%):    0.109052

Compute phase:
        Compute Time (s):     494.539 |    Compute Time (%):     99.3952
         Iteration count:        3958 |         Avg. s/iter:    0.124947
     Core-s/iter/Mpoints:     22.3176 |           Mpoints/s:    0.537693

Output phase:
         Output Time (s):     2.46664 |     Output Time (%):    0.495758
            Output count:           1 |       Avg. s/output:     2.46664
 Restart Aggr. BW (MB/s):      953659 |           MB/s/core:     79471.6
-------------------------------------------------------------------------


------------------------- Exit Success (SU2_CFD) ------------------------

