
-------------------------------------------------------------------------
|    ___ _   _ ___                                                      |
|   / __| | | |_  )   Release 8.0.1 "Harrier"                           |
|   \__ \ |_| |/ /                                                      |
|   |___/\___//___|   Suite (Computational Fluid Dynamics Code)         |
|                                                                       |
-------------------------------------------------------------------------
| SU2 Project Website: https://su2code.github.io                        |
|                                                                       |
| The SU2 Project is maintained by the SU2 Foundation                   |
| (http://su2foundation.org)                                            |
-------------------------------------------------------------------------
| Copyright 2012-2024, SU2 Contributors                                 |
|                                                                       |
| SU2 is free software; you can redistribute it and/or                  |
| modify it under the terms of the GNU Lesser General Public            |
| License as published by the Free Software Foundation; either          |
| version 2.1 of the License, or (at your option) any later version.    |
|                                                                       |
| SU2 is distributed in the hope that it will be useful,                |
| but WITHOUT ANY WARRANTY; without even the implied warranty of        |
| MERCHANTABILITY or FITNESS FOR A PARTICULAR PURPOSE. See the GNU      |
| Lesser General Public License for more details.                       |
|                                                                       |
| You should have received a copy of the GNU Lesser General Public      |
| License along with SU2. If not, see <http://www.gnu.org/licenses/>.   |
-------------------------------------------------------------------------

Parsing config file for zone 0

----------------- Physical Case Definition ( Zone 0 ) -------------------
Compressible RANS equations.
Turbulence model: Spalart-Allmaras-noft2-BCM
Hybrid RANS/LES: No Hybrid RANS/LES
Mach number: 0.5.
Angle of attack (AoA): -8 deg, and angle of sideslip (AoS): 0 deg.
Reynolds number: 600000. Reference length 1.00072.
No restart solution, use the values at infinity (freestream).
Dimensional simulation.
The reference area will be computed using y(2D) or z(3D) projection.
The semi-span will be computed using the max y(3D) value.
The reference length is 1.00072 m.
Reference origin for moment evaluation is (0, 0, 0).
Surface(s) where the force coefficients are evaluated: blade1.

Surface(s) plotted in the output file: blade1.
Surface(s) to be analyzed in detail: inlet, outlet, blade1.
Input mesh file name: cascade2D_databladeVALIDATION_Blade_17.su2

--------------- Space Numerical Integration ( Zone 0 ) ------------------
Jameson-Schmidt-Turkel scheme (2nd order in space) for the flow inviscid terms.
JST viscous coefficients (2nd & 4th): 0.5, 0.02.
The method includes a grid stretching correction (p = 0.3).
Scalar upwind solver for the turbulence model.
First order integration in space.
Average of gradients with correction (viscous flow terms).
Average of gradients with correction (viscous turbulence terms).
Gradient for upwind reconstruction: inverse-distance weighted Least-Squares.
Gradient for viscous and source terms: inverse-distance weighted Least-Squares.

--------------- Time Numerical Integration  ( Zone 0 ) ------------------
Local time stepping (steady state simulation).
Euler implicit method for the flow equations.
FGMRES is used for solving the linear system.
Using a LU-SGS preconditioning.
Convergence criteria of the linear solver: 0.0001.
Max number of linear iterations: 10.
V Multigrid Cycle, with 3 multigrid levels.
Damping factor for the residual restriction: 0.75.
Damping factor for the correction prolongation: 0.75.
CFL adaptation. Factor down: 0.1, factor up: 1.2,
                lower limit: 0.1, upper limit: 100,
                acceptable linear residual: 0.001.
+-------------------------------------------+
|  MG Level| Presmooth|PostSmooth|CorrectSmo|
+-------------------------------------------+
|         0|         1|         0|         1|
|         1|         2|         2|         2|
|         2|         3|         3|         3|
|         3|         3|         0|         0|
+-------------------------------------------+
Courant-Friedrichs-Lewy number:       12
Euler implicit time integration for the turbulence model.

------------------ Convergence Criteria  ( Zone 0 ) ---------------------
Maximum number of solver subiterations: 7000.
Begin convergence monitoring at iteration 500.
Residual minimum value: 1e-7.
Cauchy series min. value: 1e-10.
Number of Cauchy elements: 100.
Begin windowed time average at iteration 0.

-------------------- Output Information ( Zone 0 ) ----------------------
File writing frequency: 
+------------------------------------+
|                     File| Frequency|
+------------------------------------+
|                  RESTART|        50|
|                 PARAVIEW|        50|
|         SURFACE_PARAVIEW|        50|
|                      CSV|        50|
|              SURFACE_CSV|        50|
+------------------------------------+
Writing the convergence history file every 1 inner iterations.
Writing the screen convergence history every 10 inner iterations.
The tabular file format is CSV (.csv).
Convergence history file name: history_databladeVALIDATION_Blade_17.
Forces breakdown file name: forces_breakdown.dat.
Surface file name: surface_flowdatabladeVALIDATION_Blade_17.
Volume file name: volume_flow_databladeVALIDATION_Blade_17.
Restart file name: restart_flow_databladeVALIDATION_Blade_17.dat.

------------- Config File Boundary Information ( Zone 0 ) ---------------
+-----------------------------------------------------------------------+
|                        Marker Type|                        Marker Name|
+-----------------------------------------------------------------------+
|                  Periodic boundary|               symmetricWallsBOTTOM|
|                                   |                  symmetricWallsTOP|
+-----------------------------------------------------------------------+
|                     Inlet boundary|                              inlet|
+-----------------------------------------------------------------------+
|                    Outlet boundary|                             outlet|
+-----------------------------------------------------------------------+
|                     Heat flux wall|                             blade1|
|                                   |                             blade2|
+-----------------------------------------------------------------------+

-------------------- Output Preprocessing ( Zone 0 ) --------------------
  Info: Ignoring the following screen output fields:
  LINSOL_ITER_TRANS, LINSOL_RESIDUAL_TRANS
Screen output fields: INNER_ITER, CUR_TIME, RMS_DENSITY
  Info: Ignoring the following history output groups:
  RMS_TKE, RMS_DISSIPATION
History output group(s): INNER_ITER, WALL_TIME, RMS_DENSITY, RMS_MOMENTUM-X, RMS_ENERGY, LINSOL, CFL_NUMBER, FLOW_COEFF_SURF, AERO_COEFF_SURF
Convergence field(s): RMS_DENSITY
Warning: No (valid) fields chosen for time convergence monitoring. Time convergence monitoring inactive.
Volume output fields: COORDINATES, SOLUTION, PRIMITIVE, RESIDUAL, TIMESTEP, MESH_QUALITY, VORTEX_IDENTIFICATION

------------------- Geometry Preprocessing ( Zone 0 ) -------------------
Two dimensional problem.
27391 grid points before partitioning.
43780 volume elements before partitioning.
5 surface markers.
31 boundary elements in index 0 (Marker = inlet).
470 boundary elements in index 1 (Marker = symmetricWallsBOTTOM).
470 boundary elements in index 2 (Marker = symmetricWallsTOP).
31 boundary elements in index 3 (Marker = outlet).
400 boundary elements in index 4 (Marker = blade1).
Executing the partitioning functions.
Building the graph adjacency structure.
Calling ParMETIS... graph partitioning complete (970 edge cuts).
Distributing ParMETIS coloring.
Rebalancing vertices.
Rebalancing volume element connectivity.
Rebalancing markers and surface elements.
28627 vertices including ghost points. 
44739 interior elements including halo cells. 
34886 triangles.
9853 quadrilaterals.
Establishing MPI communication patterns.
Setting point connectivity.
Renumbering points (Reverse Cuthill McKee Ordering).
Recomputing point connectivity.
Setting element connectivity.
Checking the numerical grid orientation.
All volume elements are correctly orientend.
There has been a re-orientation of 711 LINE surface elements.
Identifying edges and vertices.
Setting the control volume structure.
Area of the computational grid: 4.05534.
Searching for the closest normal neighbors to the surfaces.
Storing a mapping from global to local point index.
Compute the surface curvature.
Max K: 77.3362. Mean K: 1.4472. Standard deviation K: 7.26778.
Checking for periodicity.
WARNING: Periodicity has been detected. Disabling multigrid. 
Computing mesh quality statistics for the dual control volumes.
+--------------------------------------------------------------+
|           Mesh Quality Metric|        Minimum|        Maximum|
+--------------------------------------------------------------+
|    Orthogonality Angle (deg.)|        29.0106|             90|
|     CV Face Area Aspect Ratio|        1.00006|        1268.07|
|           CV Sub-Volume Ratio|              1|        6.61516|
+--------------------------------------------------------------+
Finding max control volume width.
Communicating number of neighbors.
Reference length = 1.01913 m.
Wetted area = 3.59086 m.
Area projection in the x-plane = 1.30305 m, y-plane = 1.01913 m.
Max. coordinate in the x-direction = 1.01874 m, y-direction = 1.09515 m.
Min. coordinate in the x-direction = -0.000473793 m, y-direction = -0.207991 m.
Matching the periodic boundary points for marker pair 1.
 Matched 942 points with a max distance of: 2.0417e-13.
Computing wall distances.

-------------------- Solver Preprocessing ( Zone 0 ) --------------------
Viscous flow: Computing pressure using the ideal gas law
based on the free-stream temperature and a density computed
from the Reynolds number.
Force coefficients computed using free-stream values.

-- Models:
+------------------------------------------------------------------------------+
|          Viscosity Model|        Conductivity Model|              Fluid Model|
+------------------------------------------------------------------------------+
|               SUTHERLAND|          CONSTANT_PRANDTL|                IDEAL_GAS|
+------------------------------------------------------------------------------+
-- Fluid properties:
+------------------------------------------------------------------------------+
|                  Name|    Dim. value|    Ref. value|      Unit|Non-dim. value|
+------------------------------------------------------------------------------+
|        Ref. Viscosity|     1.716e-05|             1|   N.s/m^2|     1.716e-05|
|      Sutherland Temp.|        273.15|             1|         K|        273.15|
|     Sutherland Const.|         110.4|             1|         K|         110.4|
+------------------------------------------------------------------------------+
|        Prandtl (Lam.)|             -|             -|         -|          0.72|
|       Prandtl (Turb.)|             -|             -|         -|           0.9|
+------------------------------------------------------------------------------+
|          Gas Constant|       287.058|             1|  N.m/kg.K|       287.058|
|      Spec. Heat Ratio|             -|             -|         -|           1.4|
+------------------------------------------------------------------------------+
-- Initial and free-stream conditions:
+------------------------------------------------------------------------------+
|                  Name|    Dim. value|    Ref. value|      Unit|Non-dim. value|
+------------------------------------------------------------------------------+
|       Static Pressure|       5489.87|             1|        Pa|       5489.87|
|               Density|     0.0637486|             1|    kg/m^3|     0.0637486|
|           Temperature|           300|             1|         K|           300|
|          Total Energy|        230364|             1|   m^2/s^2|        230364|
|            Velocity-X|       171.922|             1|       m/s|       171.922|
|            Velocity-Y|      -24.1621|             1|       m/s|      -24.1621|
|    Velocity Magnitude|       173.612|             1|       m/s|       173.612|
+------------------------------------------------------------------------------+
|             Viscosity|   1.84592e-05|             1|   N.s/m^2|   1.84592e-05|
|          Conductivity|             -|             1|   W/m^2.K|             -|
|     Turb. Kin. Energy|       55.3843|             1|   m^2/s^2|       55.3843|
|     Spec. Dissipation|   1.91269e+06|             1|       1/s|   1.91269e+06|
+------------------------------------------------------------------------------+
|           Mach Number|             -|             -|         -|           0.5|
|       Reynolds Number|             -|             -|         -|        600000|
+------------------------------------------------------------------------------+
Initialize Jacobian structure (Navier-Stokes). MG level: 0.
Initialize Jacobian structure (SA model).

------------------- Numerics Preprocessing ( Zone 0 ) -------------------

----------------- Integration Preprocessing ( Zone 0 ) ------------------

------------------- Iteration Preprocessing ( Zone 0 ) ------------------
Euler/Navier-Stokes/RANS fluid iteration.

------------------------------ Begin Solver -----------------------------

Simulation Run using the Single-zone Driver
WARNING: SU2 was not compiled for an AVX-capable architecture. Performance could be better,
         see https://su2code.github.io/docs_v7/Build-SU2-Linux-MacOS/#compiler-optimizations
+--------------------------------------+
|  Inner_Iter|    Cur_Time|    rms[Rho]|
+--------------------------------------+
|           0|  0.0000e+00|   -1.993357|
|          10|  0.0000e+00|   -2.639662|
|          20|  0.0000e+00|   -2.567597|
|          30|  0.0000e+00|   -2.655860|
|          40|  0.0000e+00|   -2.634969|
|          50|  0.0000e+00|   -2.700636|
+-----------------------------------------------------------------------+
|        File Writing Summary       |              Filename             |
+-----------------------------------------------------------------------+
|SU2 binary restart                 |restart_flow_databladeVALIDATION_Blade_17.dat|
|                                   |                     (6382.29 MB/s)|
|Paraview                           |volume_flow_databladeVALIDATION_Blade_17.vtu|
|                                   |                      (577.78 MB/s)|
|Paraview surface                   |surface_flowdatabladeVALIDATION_Blade_17.vtu|
|                                   |                     (50.1304 MB/s)|
|SU2 ASCII restart                  |restart_flow_databladeVALIDATION_Blade_17.csv|
|                                   |                      (21.557 MB/s)|
|CSV file                           |surface_flowdatabladeVALIDATION_Blade_17.csv|
|                                   |                     (17.2746 MB/s)|
+-----------------------------------------------------------------------+
+--------------------------------------+
|  Inner_Iter|    Cur_Time|    rms[Rho]|
+--------------------------------------+
|          60|  0.0000e+00|   -2.781394|
|          70|  0.0000e+00|   -2.743117|
|          80|  0.0000e+00|   -2.706115|
|          90|  0.0000e+00|   -2.720062|
|         100|  0.0000e+00|   -2.810764|
+-----------------------------------------------------------------------+
|        File Writing Summary       |              Filename             |
+-----------------------------------------------------------------------+
|SU2 binary restart                 |restart_flow_databladeVALIDATION_Blade_17.dat|
|                                   |                     (6820.95 MB/s)|
|Paraview                           |volume_flow_databladeVALIDATION_Blade_17.vtu|
|                                   |                     (551.817 MB/s)|
|Paraview surface                   |surface_flowdatabladeVALIDATION_Blade_17.vtu|
|                                   |                     (48.7623 MB/s)|
|SU2 ASCII restart                  |restart_flow_databladeVALIDATION_Blade_17.csv|
|                                   |                     (21.9734 MB/s)|
|CSV file                           |surface_flowdatabladeVALIDATION_Blade_17.csv|
|                                   |                     (18.5601 MB/s)|
+-----------------------------------------------------------------------+
+--------------------------------------+
|  Inner_Iter|    Cur_Time|    rms[Rho]|
+--------------------------------------+
|         110|  0.0000e+00|   -2.769380|
|         120|  0.0000e+00|   -2.713589|
|         130|  0.0000e+00|   -2.746231|
|         140|  0.0000e+00|   -2.766271|
|         150|  0.0000e+00|   -2.733279|
+-----------------------------------------------------------------------+
|        File Writing Summary       |              Filename             |
+-----------------------------------------------------------------------+
|SU2 binary restart                 |restart_flow_databladeVALIDATION_Blade_17.dat|
|                                   |                     (7000.22 MB/s)|
|Paraview                           |volume_flow_databladeVALIDATION_Blade_17.vtu|
|                                   |                      (612.54 MB/s)|
|Paraview surface                   |surface_flowdatabladeVALIDATION_Blade_17.vtu|
|                                   |                     (51.7286 MB/s)|
|SU2 ASCII restart                  |restart_flow_databladeVALIDATION_Blade_17.csv|
|                                   |                     (21.9674 MB/s)|
|CSV file                           |surface_flowdatabladeVALIDATION_Blade_17.csv|
|                                   |                       (19.51 MB/s)|
+-----------------------------------------------------------------------+
+--------------------------------------+
|  Inner_Iter|    Cur_Time|    rms[Rho]|
+--------------------------------------+
|         160|  0.0000e+00|   -2.756644|
|         170|  0.0000e+00|   -2.825241|
|         180|  0.0000e+00|   -2.855480|
|         190|  0.0000e+00|   -2.780671|
|         200|  0.0000e+00|   -2.563655|
+-----------------------------------------------------------------------+
|        File Writing Summary       |              Filename             |
+-----------------------------------------------------------------------+
|SU2 binary restart                 |restart_flow_databladeVALIDATION_Blade_17.dat|
|                                   |                      (6659.8 MB/s)|
|Paraview                           |volume_flow_databladeVALIDATION_Blade_17.vtu|
|                                   |                     (622.329 MB/s)|
|Paraview surface                   |surface_flowdatabladeVALIDATION_Blade_17.vtu|
|                                   |                     (48.8052 MB/s)|
|SU2 ASCII restart                  |restart_flow_databladeVALIDATION_Blade_17.csv|
|                                   |                     (20.5924 MB/s)|
|CSV file                           |surface_flowdatabladeVALIDATION_Blade_17.csv|
|                                   |                     (18.2211 MB/s)|
+-----------------------------------------------------------------------+
+--------------------------------------+
|  Inner_Iter|    Cur_Time|    rms[Rho]|
+--------------------------------------+
|         210|  0.0000e+00|   -2.253554|
|         220|  0.0000e+00|   -2.110705|
|         230|  0.0000e+00|   -1.951235|
|         240|  0.0000e+00|   -1.937526|
|         250|  0.0000e+00|   -1.848115|
+-----------------------------------------------------------------------+
|        File Writing Summary       |              Filename             |
+-----------------------------------------------------------------------+
|SU2 binary restart                 |restart_flow_databladeVALIDATION_Blade_17.dat|
|                                   |                     (5354.42 MB/s)|
|Paraview                           |volume_flow_databladeVALIDATION_Blade_17.vtu|
|                                   |                     (589.655 MB/s)|
|Paraview surface                   |surface_flowdatabladeVALIDATION_Blade_17.vtu|
|                                   |                     (63.4637 MB/s)|
|SU2 ASCII restart                  |restart_flow_databladeVALIDATION_Blade_17.csv|
|                                   |                     (21.8166 MB/s)|
|CSV file                           |surface_flowdatabladeVALIDATION_Blade_17.csv|
|                                   |                       (18.99 MB/s)|
+-----------------------------------------------------------------------+
+--------------------------------------+
|  Inner_Iter|    Cur_Time|    rms[Rho]|
+--------------------------------------+
|         260|  0.0000e+00|   -1.787843|
|         270|  0.0000e+00|   -1.731291|
|         280|  0.0000e+00|   -1.573519|
|         290|  0.0000e+00|   -1.549951|
|         300|  0.0000e+00|   -1.566242|
+-----------------------------------------------------------------------+
|        File Writing Summary       |              Filename             |
+-----------------------------------------------------------------------+
|SU2 binary restart                 |restart_flow_databladeVALIDATION_Blade_17.dat|
|                                   |                     (6892.99 MB/s)|
|Paraview                           |volume_flow_databladeVALIDATION_Blade_17.vtu|
|                                   |                     (607.959 MB/s)|
|Paraview surface                   |surface_flowdatabladeVALIDATION_Blade_17.vtu|
|                                   |                     (63.6527 MB/s)|
|SU2 ASCII restart                  |restart_flow_databladeVALIDATION_Blade_17.csv|
|                                   |                     (21.8382 MB/s)|
|CSV file                           |surface_flowdatabladeVALIDATION_Blade_17.csv|
|                                   |                     (19.0317 MB/s)|
+-----------------------------------------------------------------------+
+--------------------------------------+
|  Inner_Iter|    Cur_Time|    rms[Rho]|
+--------------------------------------+
|         310|  0.0000e+00|   -1.375796|
|         320|  0.0000e+00|   -1.349818|
|         330|  0.0000e+00|   -1.233486|
|         340|  0.0000e+00|   -1.026834|
|         350|  0.0000e+00|   -1.105793|
+-----------------------------------------------------------------------+
|        File Writing Summary       |              Filename             |
+-----------------------------------------------------------------------+
|SU2 binary restart                 |restart_flow_databladeVALIDATION_Blade_17.dat|
|                                   |                     (8324.18 MB/s)|
|Paraview                           |volume_flow_databladeVALIDATION_Blade_17.vtu|
|                                   |                      (607.19 MB/s)|
|Paraview surface                   |surface_flowdatabladeVALIDATION_Blade_17.vtu|
|                                   |                     (58.1024 MB/s)|
|SU2 ASCII restart                  |restart_flow_databladeVALIDATION_Blade_17.csv|
|                                   |                     (21.7746 MB/s)|
|CSV file                           |surface_flowdatabladeVALIDATION_Blade_17.csv|
|                                   |                     (19.0307 MB/s)|
+-----------------------------------------------------------------------+
+--------------------------------------+
|  Inner_Iter|    Cur_Time|    rms[Rho]|
+--------------------------------------+
|         360|  0.0000e+00|   -1.093338|
|         370|  0.0000e+00|   -1.179898|
|         380|  0.0000e+00|   -1.187888|
|         390|  0.0000e+00|   -1.138934|
|         400|  0.0000e+00|   -1.109314|
+-----------------------------------------------------------------------+
|        File Writing Summary       |              Filename             |
+-----------------------------------------------------------------------+
|SU2 binary restart                 |restart_flow_databladeVALIDATION_Blade_17.dat|
|                                   |                     (6916.02 MB/s)|
|Paraview                           |volume_flow_databladeVALIDATION_Blade_17.vtu|
|                                   |                      (646.71 MB/s)|
|Paraview surface                   |surface_flowdatabladeVALIDATION_Blade_17.vtu|
|                                   |                     (59.3021 MB/s)|
|SU2 ASCII restart                  |restart_flow_databladeVALIDATION_Blade_17.csv|
|                                   |                       (21.71 MB/s)|
|CSV file                           |surface_flowdatabladeVALIDATION_Blade_17.csv|
|                                   |                     (18.6424 MB/s)|
+-----------------------------------------------------------------------+
+--------------------------------------+
|  Inner_Iter|    Cur_Time|    rms[Rho]|
+--------------------------------------+
|         410|  0.0000e+00|   -0.972777|
|         420|  0.0000e+00|   -0.910021|
|         430|  0.0000e+00|   -0.751376|
|         440|  0.0000e+00|   -0.690585|
|         450|  0.0000e+00|   -0.435685|
+-----------------------------------------------------------------------+
|        File Writing Summary       |              Filename             |
+-----------------------------------------------------------------------+
|SU2 binary restart                 |restart_flow_databladeVALIDATION_Blade_17.dat|
|                                   |                     (7437.92 MB/s)|
|Paraview                           |volume_flow_databladeVALIDATION_Blade_17.vtu|
|                                   |                     (626.044 MB/s)|
|Paraview surface                   |surface_flowdatabladeVALIDATION_Blade_17.vtu|
|                                   |                     (53.8593 MB/s)|
|SU2 ASCII restart                  |restart_flow_databladeVALIDATION_Blade_17.csv|
|                                   |                     (21.7017 MB/s)|
|CSV file                           |surface_flowdatabladeVALIDATION_Blade_17.csv|
|                                   |                     (18.5981 MB/s)|
+-----------------------------------------------------------------------+
+--------------------------------------+
|  Inner_Iter|    Cur_Time|    rms[Rho]|
+--------------------------------------+
|         460|  0.0000e+00|   -0.450584|
|         470|  0.0000e+00|   -0.464407|
|         480|  0.0000e+00|   -0.291812|
|         490|  0.0000e+00|   -0.302002|
|         500|  0.0000e+00|   -0.311520|
+-----------------------------------------------------------------------+
|        File Writing Summary       |              Filename             |
+-----------------------------------------------------------------------+
|SU2 binary restart                 |restart_flow_databladeVALIDATION_Blade_17.dat|
|                                   |                     (6946.53 MB/s)|
|Paraview                           |volume_flow_databladeVALIDATION_Blade_17.vtu|
|                                   |                      (676.15 MB/s)|
|Paraview surface                   |surface_flowdatabladeVALIDATION_Blade_17.vtu|
|                                   |                     (50.0513 MB/s)|
|SU2 ASCII restart                  |restart_flow_databladeVALIDATION_Blade_17.csv|
|                                   |                     (22.0409 MB/s)|
|CSV file                           |surface_flowdatabladeVALIDATION_Blade_17.csv|
|                                   |                     (16.2759 MB/s)|
+-----------------------------------------------------------------------+
+--------------------------------------+
|  Inner_Iter|    Cur_Time|    rms[Rho]|
+--------------------------------------+
|         510|  0.0000e+00|   -0.333427|
|         520|  0.0000e+00|   -0.360981|
|         530|  0.0000e+00|   -0.381084|
|         540|  0.0000e+00|   -0.406686|
|         550|  0.0000e+00|   -0.280089|
+-----------------------------------------------------------------------+
|        File Writing Summary       |              Filename             |
+-----------------------------------------------------------------------+
|SU2 binary restart                 |restart_flow_databladeVALIDATION_Blade_17.dat|
|                                   |                     (6837.69 MB/s)|
|Paraview                           |volume_flow_databladeVALIDATION_Blade_17.vtu|
|                                   |                     (599.498 MB/s)|
|Paraview surface                   |surface_flowdatabladeVALIDATION_Blade_17.vtu|
|                                   |                     (50.2505 MB/s)|
|SU2 ASCII restart                  |restart_flow_databladeVALIDATION_Blade_17.csv|
|                                   |                     (22.2019 MB/s)|
|CSV file                           |surface_flowdatabladeVALIDATION_Blade_17.csv|
|                                   |                      (17.504 MB/s)|
+-----------------------------------------------------------------------+
+--------------------------------------+
|  Inner_Iter|    Cur_Time|    rms[Rho]|
+--------------------------------------+
|         560|  0.0000e+00|   -0.326930|
|         570|  0.0000e+00|   -0.420947|
|         580|  0.0000e+00|   -0.369953|
|         590|  0.0000e+00|   -0.411977|
|         600|  0.0000e+00|   -0.440709|
+-----------------------------------------------------------------------+
|        File Writing Summary       |              Filename             |
+-----------------------------------------------------------------------+
|SU2 binary restart                 |restart_flow_databladeVALIDATION_Blade_17.dat|
|                                   |                     (6536.03 MB/s)|
|Paraview                           |volume_flow_databladeVALIDATION_Blade_17.vtu|
|                                   |                     (680.315 MB/s)|
|Paraview surface                   |surface_flowdatabladeVALIDATION_Blade_17.vtu|
|                                   |                     (47.9358 MB/s)|
|SU2 ASCII restart                  |restart_flow_databladeVALIDATION_Blade_17.csv|
|                                   |                      (21.426 MB/s)|
|CSV file                           |surface_flowdatabladeVALIDATION_Blade_17.csv|
|                                   |                     (16.7605 MB/s)|
+-----------------------------------------------------------------------+
+--------------------------------------+
|  Inner_Iter|    Cur_Time|    rms[Rho]|
+--------------------------------------+
|         610|  0.0000e+00|   -0.476839|
|         620|  0.0000e+00|   -0.516640|
|         630|  0.0000e+00|   -0.570825|
|         640|  0.0000e+00|   -0.590926|
|         650|  0.0000e+00|   -0.615472|
+-----------------------------------------------------------------------+
|        File Writing Summary       |              Filename             |
+-----------------------------------------------------------------------+
|SU2 binary restart                 |restart_flow_databladeVALIDATION_Blade_17.dat|
|                                   |                     (6848.03 MB/s)|
|Paraview                           |volume_flow_databladeVALIDATION_Blade_17.vtu|
|                                   |                     (630.647 MB/s)|
|Paraview surface                   |surface_flowdatabladeVALIDATION_Blade_17.vtu|
|                                   |                     (47.7751 MB/s)|
|SU2 ASCII restart                  |restart_flow_databladeVALIDATION_Blade_17.csv|
|                                   |                      (21.675 MB/s)|
|CSV file                           |surface_flowdatabladeVALIDATION_Blade_17.csv|
|                                   |                     (17.2887 MB/s)|
+-----------------------------------------------------------------------+
+--------------------------------------+
|  Inner_Iter|    Cur_Time|    rms[Rho]|
+--------------------------------------+
|         660|  0.0000e+00|   -0.640745|
|         670|  0.0000e+00|   -0.619207|
|         680|  0.0000e+00|   -0.624554|
|         690|  0.0000e+00|   -0.645414|
|         700|  0.0000e+00|   -0.700358|
+-----------------------------------------------------------------------+
|        File Writing Summary       |              Filename             |
+-----------------------------------------------------------------------+
|SU2 binary restart                 |restart_flow_databladeVALIDATION_Blade_17.dat|
|                                   |                     (7162.88 MB/s)|
|Paraview                           |volume_flow_databladeVALIDATION_Blade_17.vtu|
|                                   |                     (652.577 MB/s)|
|Paraview surface                   |surface_flowdatabladeVALIDATION_Blade_17.vtu|
|                                   |                     (45.6875 MB/s)|
|SU2 ASCII restart                  |restart_flow_databladeVALIDATION_Blade_17.csv|
|                                   |                     (21.4393 MB/s)|
|CSV file                           |surface_flowdatabladeVALIDATION_Blade_17.csv|
|                                   |                     (18.9896 MB/s)|
+-----------------------------------------------------------------------+
+--------------------------------------+
|  Inner_Iter|    Cur_Time|    rms[Rho]|
+--------------------------------------+
|         710|  0.0000e+00|   -0.740716|
|         720|  0.0000e+00|   -0.757680|
|         730|  0.0000e+00|   -0.773268|
|         740|  0.0000e+00|   -0.791558|
|         750|  0.0000e+00|   -0.802435|
+-----------------------------------------------------------------------+
|        File Writing Summary       |              Filename             |
+-----------------------------------------------------------------------+
|SU2 binary restart                 |restart_flow_databladeVALIDATION_Blade_17.dat|
|                                   |                     (6603.95 MB/s)|
|Paraview                           |volume_flow_databladeVALIDATION_Blade_17.vtu|
|                                   |                     (597.932 MB/s)|
|Paraview surface                   |surface_flowdatabladeVALIDATION_Blade_17.vtu|
|                                   |                     (51.8807 MB/s)|
|SU2 ASCII restart                  |restart_flow_databladeVALIDATION_Blade_17.csv|
|                                   |                     (21.6893 MB/s)|
|CSV file                           |surface_flowdatabladeVALIDATION_Blade_17.csv|
|                                   |                      (17.389 MB/s)|
+-----------------------------------------------------------------------+
+--------------------------------------+
|  Inner_Iter|    Cur_Time|    rms[Rho]|
+--------------------------------------+
|         760|  0.0000e+00|   -0.806881|
|         770|  0.0000e+00|   -0.807833|
|         780|  0.0000e+00|   -0.805413|
|         790|  0.0000e+00|   -0.798295|
|         800|  0.0000e+00|   -0.787939|
+-----------------------------------------------------------------------+
|        File Writing Summary       |              Filename             |
+-----------------------------------------------------------------------+
|SU2 binary restart                 |restart_flow_databladeVALIDATION_Blade_17.dat|
|                                   |                     (8557.21 MB/s)|
|Paraview                           |volume_flow_databladeVALIDATION_Blade_17.vtu|
|                                   |                     (595.685 MB/s)|
|Paraview surface                   |surface_flowdatabladeVALIDATION_Blade_17.vtu|
|                                   |                     (47.8533 MB/s)|
|SU2 ASCII restart                  |restart_flow_databladeVALIDATION_Blade_17.csv|
|                                   |                      (21.699 MB/s)|
|CSV file                           |surface_flowdatabladeVALIDATION_Blade_17.csv|
|                                   |                     (17.8258 MB/s)|
+-----------------------------------------------------------------------+
+--------------------------------------+
|  Inner_Iter|    Cur_Time|    rms[Rho]|
+--------------------------------------+
|         810|  0.0000e+00|   -0.772928|
|         820|  0.0000e+00|   -0.754792|
|         830|  0.0000e+00|   -0.737234|
|         840|  0.0000e+00|   -0.714585|
|         850|  0.0000e+00|   -0.679456|
+-----------------------------------------------------------------------+
|        File Writing Summary       |              Filename             |
+-----------------------------------------------------------------------+
|SU2 binary restart                 |restart_flow_databladeVALIDATION_Blade_17.dat|
|                                   |                     (6787.72 MB/s)|
|Paraview                           |volume_flow_databladeVALIDATION_Blade_17.vtu|
|                                   |                     (617.098 MB/s)|
|Paraview surface                   |surface_flowdatabladeVALIDATION_Blade_17.vtu|
|                                   |                     (45.9045 MB/s)|
|SU2 ASCII restart                  |restart_flow_databladeVALIDATION_Blade_17.csv|
|                                   |                      (21.664 MB/s)|
|CSV file                           |surface_flowdatabladeVALIDATION_Blade_17.csv|
|                                   |                     (19.9094 MB/s)|
+-----------------------------------------------------------------------+
+--------------------------------------+
|  Inner_Iter|    Cur_Time|    rms[Rho]|
+--------------------------------------+
|         860|  0.0000e+00|   -0.646123|
|         870|  0.0000e+00|   -0.624375|
|         880|  0.0000e+00|   -0.604100|
|         890|  0.0000e+00|   -0.589705|
|         900|  0.0000e+00|   -0.579496|
+-----------------------------------------------------------------------+
|        File Writing Summary       |              Filename             |
+-----------------------------------------------------------------------+
|SU2 binary restart                 |restart_flow_databladeVALIDATION_Blade_17.dat|
|                                   |                     (6786.45 MB/s)|
|Paraview                           |volume_flow_databladeVALIDATION_Blade_17.vtu|
|                                   |                     (658.039 MB/s)|
|Paraview surface                   |surface_flowdatabladeVALIDATION_Blade_17.vtu|
|                                   |                     (49.7111 MB/s)|
|SU2 ASCII restart                  |restart_flow_databladeVALIDATION_Blade_17.csv|
|                                   |                     (21.6084 MB/s)|
|CSV file                           |surface_flowdatabladeVALIDATION_Blade_17.csv|
|                                   |                     (19.5801 MB/s)|
+-----------------------------------------------------------------------+
+--------------------------------------+
|  Inner_Iter|    Cur_Time|    rms[Rho]|
+--------------------------------------+
|         910|  0.0000e+00|   -0.572742|
|         920|  0.0000e+00|   -0.567502|
|         930|  0.0000e+00|   -0.563475|
|         940|  0.0000e+00|   -0.562243|
|         950|  0.0000e+00|   -0.565489|
+-----------------------------------------------------------------------+
|        File Writing Summary       |              Filename             |
+-----------------------------------------------------------------------+
|SU2 binary restart                 |restart_flow_databladeVALIDATION_Blade_17.dat|
|                                   |                     (6442.45 MB/s)|
|Paraview                           |volume_flow_databladeVALIDATION_Blade_17.vtu|
|                                   |                     (613.428 MB/s)|
|Paraview surface                   |surface_flowdatabladeVALIDATION_Blade_17.vtu|
|                                   |                     (51.2846 MB/s)|
|SU2 ASCII restart                  |restart_flow_databladeVALIDATION_Blade_17.csv|
|                                   |                       (21.94 MB/s)|
|CSV file                           |surface_flowdatabladeVALIDATION_Blade_17.csv|
|                                   |                      (19.231 MB/s)|
+-----------------------------------------------------------------------+
+--------------------------------------+
|  Inner_Iter|    Cur_Time|    rms[Rho]|
+--------------------------------------+
|         960|  0.0000e+00|   -0.572382|
|         970|  0.0000e+00|   -0.577371|
|         980|  0.0000e+00|   -0.584085|
|         990|  0.0000e+00|   -0.597636|
|        1000|  0.0000e+00|   -0.609882|
+-----------------------------------------------------------------------+
|        File Writing Summary       |              Filename             |
+-----------------------------------------------------------------------+
|SU2 binary restart                 |restart_flow_databladeVALIDATION_Blade_17.dat|
|                                   |                      (6998.2 MB/s)|
|Paraview                           |volume_flow_databladeVALIDATION_Blade_17.vtu|
|                                   |                     (577.566 MB/s)|
|Paraview surface                   |surface_flowdatabladeVALIDATION_Blade_17.vtu|
|                                   |                     (50.1892 MB/s)|
|SU2 ASCII restart                  |restart_flow_databladeVALIDATION_Blade_17.csv|
|                                   |                     (21.8935 MB/s)|
|CSV file                           |surface_flowdatabladeVALIDATION_Blade_17.csv|
|                                   |                     (17.9553 MB/s)|
+-----------------------------------------------------------------------+
+--------------------------------------+
|  Inner_Iter|    Cur_Time|    rms[Rho]|
+--------------------------------------+
|        1010|  0.0000e+00|   -0.618614|
|        1020|  0.0000e+00|   -0.626842|
|        1030|  0.0000e+00|   -0.639204|
|        1040|  0.0000e+00|   -0.650198|
|        1050|  0.0000e+00|   -0.666480|
+-----------------------------------------------------------------------+
|        File Writing Summary       |              Filename             |
+-----------------------------------------------------------------------+
|SU2 binary restart                 |restart_flow_databladeVALIDATION_Blade_17.dat|
|                                   |                     (4690.84 MB/s)|
|Paraview                           |volume_flow_databladeVALIDATION_Blade_17.vtu|
|                                   |                     (586.069 MB/s)|
|Paraview surface                   |surface_flowdatabladeVALIDATION_Blade_17.vtu|
|                                   |                     (46.5583 MB/s)|
|SU2 ASCII restart                  |restart_flow_databladeVALIDATION_Blade_17.csv|
|                                   |                     (21.6318 MB/s)|
|CSV file                           |surface_flowdatabladeVALIDATION_Blade_17.csv|
|                                   |                     (18.0508 MB/s)|
+-----------------------------------------------------------------------+
+--------------------------------------+
|  Inner_Iter|    Cur_Time|    rms[Rho]|
+--------------------------------------+
|        1060|  0.0000e+00|   -0.682242|
|        1070|  0.0000e+00|   -0.692750|
|        1080|  0.0000e+00|   -0.698477|
|        1090|  0.0000e+00|   -0.706927|
|        1100|  0.0000e+00|   -0.718180|
+-----------------------------------------------------------------------+
|        File Writing Summary       |              Filename             |
+-----------------------------------------------------------------------+
|SU2 binary restart                 |restart_flow_databladeVALIDATION_Blade_17.dat|
|                                   |                     (6969.92 MB/s)|
|Paraview                           |volume_flow_databladeVALIDATION_Blade_17.vtu|
|                                   |                     (646.894 MB/s)|
|Paraview surface                   |surface_flowdatabladeVALIDATION_Blade_17.vtu|
|                                   |                     (60.8408 MB/s)|
|SU2 ASCII restart                  |restart_flow_databladeVALIDATION_Blade_17.csv|
|                                   |                     (21.3613 MB/s)|
|CSV file                           |surface_flowdatabladeVALIDATION_Blade_17.csv|
|                                   |                     (16.1255 MB/s)|
+-----------------------------------------------------------------------+
+--------------------------------------+
|  Inner_Iter|    Cur_Time|    rms[Rho]|
+--------------------------------------+
|        1110|  0.0000e+00|   -0.725263|
|        1120|  0.0000e+00|   -0.732020|
|        1130|  0.0000e+00|   -0.740825|
|        1140|  0.0000e+00|   -0.749520|
|        1150|  0.0000e+00|   -0.753220|
+-----------------------------------------------------------------------+
|        File Writing Summary       |              Filename             |
+-----------------------------------------------------------------------+
|SU2 binary restart                 |restart_flow_databladeVALIDATION_Blade_17.dat|
|                                   |                     (6871.41 MB/s)|
|Paraview                           |volume_flow_databladeVALIDATION_Blade_17.vtu|
|                                   |                     (607.663 MB/s)|
|Paraview surface                   |surface_flowdatabladeVALIDATION_Blade_17.vtu|
|                                   |                     (46.6874 MB/s)|
|SU2 ASCII restart                  |restart_flow_databladeVALIDATION_Blade_17.csv|
|                                   |                     (22.0966 MB/s)|
|CSV file                           |surface_flowdatabladeVALIDATION_Blade_17.csv|
|                                   |                     (16.8539 MB/s)|
+-----------------------------------------------------------------------+
+--------------------------------------+
|  Inner_Iter|    Cur_Time|    rms[Rho]|
+--------------------------------------+
|        1160|  0.0000e+00|   -0.758402|
|        1170|  0.0000e+00|   -0.762459|
|        1180|  0.0000e+00|   -0.765348|
|        1190|  0.0000e+00|   -0.766924|
|        1200|  0.0000e+00|   -0.767707|
+-----------------------------------------------------------------------+
|        File Writing Summary       |              Filename             |
+-----------------------------------------------------------------------+
|SU2 binary restart                 |restart_flow_databladeVALIDATION_Blade_17.dat|
|                                   |                     (7094.83 MB/s)|
|Paraview                           |volume_flow_databladeVALIDATION_Blade_17.vtu|
|                                   |                     (567.455 MB/s)|
|Paraview surface                   |surface_flowdatabladeVALIDATION_Blade_17.vtu|
|                                   |                     (48.0145 MB/s)|
|SU2 ASCII restart                  |restart_flow_databladeVALIDATION_Blade_17.csv|
|                                   |                     (21.3902 MB/s)|
|CSV file                           |surface_flowdatabladeVALIDATION_Blade_17.csv|
|                                   |                      (19.315 MB/s)|
+-----------------------------------------------------------------------+
+--------------------------------------+
|  Inner_Iter|    Cur_Time|    rms[Rho]|
+--------------------------------------+
|        1210|  0.0000e+00|   -0.768133|
|        1220|  0.0000e+00|   -0.768330|
|        1230|  0.0000e+00|   -0.768071|
|        1240|  0.0000e+00|   -0.766989|
|        1250|  0.0000e+00|   -0.764867|
+-----------------------------------------------------------------------+
|        File Writing Summary       |              Filename             |
+-----------------------------------------------------------------------+
|SU2 binary restart                 |restart_flow_databladeVALIDATION_Blade_17.dat|
|                                   |                     (5305.02 MB/s)|
|Paraview                           |volume_flow_databladeVALIDATION_Blade_17.vtu|
|                                   |                     (504.815 MB/s)|
|Paraview surface                   |surface_flowdatabladeVALIDATION_Blade_17.vtu|
|                                   |                     (34.0891 MB/s)|
|SU2 ASCII restart                  |restart_flow_databladeVALIDATION_Blade_17.csv|
|                                   |                     (21.3428 MB/s)|
|CSV file                           |surface_flowdatabladeVALIDATION_Blade_17.csv|
|                                   |                     (19.6348 MB/s)|
+-----------------------------------------------------------------------+
+--------------------------------------+
|  Inner_Iter|    Cur_Time|    rms[Rho]|
+--------------------------------------+
|        1260|  0.0000e+00|   -0.763146|
|        1270|  0.0000e+00|   -0.760570|
|        1280|  0.0000e+00|   -0.756737|
|        1290|  0.0000e+00|   -0.752659|
|        1300|  0.0000e+00|   -0.750475|
+-----------------------------------------------------------------------+
|        File Writing Summary       |              Filename             |
+-----------------------------------------------------------------------+
|SU2 binary restart                 |restart_flow_databladeVALIDATION_Blade_17.dat|
|                                   |                      (7293.4 MB/s)|
|Paraview                           |volume_flow_databladeVALIDATION_Blade_17.vtu|
|                                   |                     (601.694 MB/s)|
|Paraview surface                   |surface_flowdatabladeVALIDATION_Blade_17.vtu|
|                                   |                     (52.9106 MB/s)|
|SU2 ASCII restart                  |restart_flow_databladeVALIDATION_Blade_17.csv|
|                                   |                     (20.4727 MB/s)|
|CSV file                           |surface_flowdatabladeVALIDATION_Blade_17.csv|
|                                   |                     (15.0508 MB/s)|
+-----------------------------------------------------------------------+
+--------------------------------------+
|  Inner_Iter|    Cur_Time|    rms[Rho]|
+--------------------------------------+
|        1310|  0.0000e+00|   -0.746712|
|        1320|  0.0000e+00|   -0.741166|
|        1330|  0.0000e+00|   -0.738045|
|        1340|  0.0000e+00|   -0.720144|
|        1350|  0.0000e+00|   -0.698221|
+-----------------------------------------------------------------------+
|        File Writing Summary       |              Filename             |
+-----------------------------------------------------------------------+
|SU2 binary restart                 |restart_flow_databladeVALIDATION_Blade_17.dat|
|                                   |                     (6157.17 MB/s)|
|Paraview                           |volume_flow_databladeVALIDATION_Blade_17.vtu|
|                                   |                     (610.181 MB/s)|
|Paraview surface                   |surface_flowdatabladeVALIDATION_Blade_17.vtu|
|                                   |                     (50.7924 MB/s)|
|SU2 ASCII restart                  |restart_flow_databladeVALIDATION_Blade_17.csv|
|                                   |                     (21.5155 MB/s)|
|CSV file                           |surface_flowdatabladeVALIDATION_Blade_17.csv|
|                                   |                     (19.9008 MB/s)|
+-----------------------------------------------------------------------+
+--------------------------------------+
|  Inner_Iter|    Cur_Time|    rms[Rho]|
+--------------------------------------+
|        1360|  0.0000e+00|   -0.652253|
|        1370|  0.0000e+00|   -0.682583|
|        1380|  0.0000e+00|   -0.696963|
|        1390|  0.0000e+00|   -0.699016|
|        1400|  0.0000e+00|   -0.697734|
+-----------------------------------------------------------------------+
|        File Writing Summary       |              Filename             |
+-----------------------------------------------------------------------+
|SU2 binary restart                 |restart_flow_databladeVALIDATION_Blade_17.dat|
|                                   |                     (6937.21 MB/s)|
|Paraview                           |volume_flow_databladeVALIDATION_Blade_17.vtu|
|                                   |                      (557.07 MB/s)|
|Paraview surface                   |surface_flowdatabladeVALIDATION_Blade_17.vtu|
|                                   |                     (51.1454 MB/s)|
|SU2 ASCII restart                  |restart_flow_databladeVALIDATION_Blade_17.csv|
|                                   |                     (21.1061 MB/s)|
|CSV file                           |surface_flowdatabladeVALIDATION_Blade_17.csv|
|                                   |                     (16.2804 MB/s)|
+-----------------------------------------------------------------------+
+--------------------------------------+
|  Inner_Iter|    Cur_Time|    rms[Rho]|
+--------------------------------------+
|        1410|  0.0000e+00|   -0.695260|
|        1420|  0.0000e+00|   -0.691873|
|        1430|  0.0000e+00|   -0.689872|
|        1440|  0.0000e+00|   -0.687423|
|        1450|  0.0000e+00|   -0.685495|
+-----------------------------------------------------------------------+
|        File Writing Summary       |              Filename             |
+-----------------------------------------------------------------------+
|SU2 binary restart                 |restart_flow_databladeVALIDATION_Blade_17.dat|
|                                   |                     (6707.28 MB/s)|
|Paraview                           |volume_flow_databladeVALIDATION_Blade_17.vtu|
|                                   |                     (608.961 MB/s)|
|Paraview surface                   |surface_flowdatabladeVALIDATION_Blade_17.vtu|
|                                   |                     (45.1401 MB/s)|
|SU2 ASCII restart                  |restart_flow_databladeVALIDATION_Blade_17.csv|
|                                   |                     (21.3358 MB/s)|
|CSV file                           |surface_flowdatabladeVALIDATION_Blade_17.csv|
|                                   |                      (16.602 MB/s)|
+-----------------------------------------------------------------------+
+--------------------------------------+
|  Inner_Iter|    Cur_Time|    rms[Rho]|
+--------------------------------------+
|        1460|  0.0000e+00|   -0.683352|
|        1470|  0.0000e+00|   -0.682171|
|        1480|  0.0000e+00|   -0.680886|
|        1490|  0.0000e+00|   -0.679756|
|        1500|  0.0000e+00|   -0.678713|
+-----------------------------------------------------------------------+
|        File Writing Summary       |              Filename             |
+-----------------------------------------------------------------------+
|SU2 binary restart                 |restart_flow_databladeVALIDATION_Blade_17.dat|
|                                   |                     (7233.68 MB/s)|
|Paraview                           |volume_flow_databladeVALIDATION_Blade_17.vtu|
|                                   |                     (634.229 MB/s)|
|Paraview surface                   |surface_flowdatabladeVALIDATION_Blade_17.vtu|
|                                   |                     (50.0153 MB/s)|
|SU2 ASCII restart                  |restart_flow_databladeVALIDATION_Blade_17.csv|
|                                   |                     (21.7653 MB/s)|
|CSV file                           |surface_flowdatabladeVALIDATION_Blade_17.csv|
|                                   |                     (16.6301 MB/s)|
+-----------------------------------------------------------------------+
+--------------------------------------+
|  Inner_Iter|    Cur_Time|    rms[Rho]|
+--------------------------------------+
|        1510|  0.0000e+00|   -0.678336|
|        1520|  0.0000e+00|   -0.677947|
|        1530|  0.0000e+00|   -0.677773|
|        1540|  0.0000e+00|   -0.677840|
|        1550|  0.0000e+00|   -0.678047|
+-----------------------------------------------------------------------+
|        File Writing Summary       |              Filename             |
+-----------------------------------------------------------------------+
|SU2 binary restart                 |restart_flow_databladeVALIDATION_Blade_17.dat|
|                                   |                     (6936.55 MB/s)|
|Paraview                           |volume_flow_databladeVALIDATION_Blade_17.vtu|
|                                   |                     (615.948 MB/s)|
|Paraview surface                   |surface_flowdatabladeVALIDATION_Blade_17.vtu|
|                                   |                      (48.133 MB/s)|
|SU2 ASCII restart                  |restart_flow_databladeVALIDATION_Blade_17.csv|
|                                   |                     (21.4577 MB/s)|
|CSV file                           |surface_flowdatabladeVALIDATION_Blade_17.csv|
|                                   |                      (17.606 MB/s)|
+-----------------------------------------------------------------------+
+--------------------------------------+
|  Inner_Iter|    Cur_Time|    rms[Rho]|
+--------------------------------------+
|        1560|  0.0000e+00|   -0.678564|
|        1570|  0.0000e+00|   -0.679456|
|        1580|  0.0000e+00|   -0.680175|
|        1590|  0.0000e+00|   -0.681045|
|        1600|  0.0000e+00|   -0.682454|
+-----------------------------------------------------------------------+
|        File Writing Summary       |              Filename             |
+-----------------------------------------------------------------------+
|SU2 binary restart                 |restart_flow_databladeVALIDATION_Blade_17.dat|
|                                   |                      (6780.1 MB/s)|
|Paraview                           |volume_flow_databladeVALIDATION_Blade_17.vtu|
|                                   |                     (620.488 MB/s)|
|Paraview surface                   |surface_flowdatabladeVALIDATION_Blade_17.vtu|
|                                   |                     (47.9524 MB/s)|
|SU2 ASCII restart                  |restart_flow_databladeVALIDATION_Blade_17.csv|
|                                   |                     (21.5266 MB/s)|
|CSV file                           |surface_flowdatabladeVALIDATION_Blade_17.csv|
|                                   |                     (18.6338 MB/s)|
+-----------------------------------------------------------------------+
+--------------------------------------+
|  Inner_Iter|    Cur_Time|    rms[Rho]|
+--------------------------------------+
|        1610|  0.0000e+00|   -0.683995|
|        1620|  0.0000e+00|   -0.685060|
|        1630|  0.0000e+00|   -0.686664|
|        1640|  0.0000e+00|   -0.688979|
|        1650|  0.0000e+00|   -0.691390|
+-----------------------------------------------------------------------+
|        File Writing Summary       |              Filename             |
+-----------------------------------------------------------------------+
|SU2 binary restart                 |restart_flow_databladeVALIDATION_Blade_17.dat|
|                                   |                     (6769.33 MB/s)|
|Paraview                           |volume_flow_databladeVALIDATION_Blade_17.vtu|
|                                   |                     (627.863 MB/s)|
|Paraview surface                   |surface_flowdatabladeVALIDATION_Blade_17.vtu|
|                                   |                     (50.2823 MB/s)|
|SU2 ASCII restart                  |restart_flow_databladeVALIDATION_Blade_17.csv|
|                                   |                     (21.7116 MB/s)|
|CSV file                           |surface_flowdatabladeVALIDATION_Blade_17.csv|
|                                   |                     (17.9274 MB/s)|
+-----------------------------------------------------------------------+
+--------------------------------------+
|  Inner_Iter|    Cur_Time|    rms[Rho]|
+--------------------------------------+
|        1660|  0.0000e+00|   -0.692726|
|        1670|  0.0000e+00|   -0.695191|
|        1680|  0.0000e+00|   -0.698373|
|        1690|  0.0000e+00|   -0.700615|
|        1700|  0.0000e+00|   -0.703030|
+-----------------------------------------------------------------------+
|        File Writing Summary       |              Filename             |
+-----------------------------------------------------------------------+
|SU2 binary restart                 |restart_flow_databladeVALIDATION_Blade_17.dat|
|                                   |                     (6985.37 MB/s)|
|Paraview                           |volume_flow_databladeVALIDATION_Blade_17.vtu|
|                                   |                     (609.422 MB/s)|
|Paraview surface                   |surface_flowdatabladeVALIDATION_Blade_17.vtu|
|                                   |                     (50.0153 MB/s)|
|SU2 ASCII restart                  |restart_flow_databladeVALIDATION_Blade_17.csv|
|                                   |                     (21.7859 MB/s)|
|CSV file                           |surface_flowdatabladeVALIDATION_Blade_17.csv|
|                                   |                     (17.7311 MB/s)|
+-----------------------------------------------------------------------+
+--------------------------------------+
|  Inner_Iter|    Cur_Time|    rms[Rho]|
+--------------------------------------+
|        1710|  0.0000e+00|   -0.705827|
|        1720|  0.0000e+00|   -0.709408|
|        1730|  0.0000e+00|   -0.711747|
|        1740|  0.0000e+00|   -0.714200|
|        1750|  0.0000e+00|   -0.717763|
+-----------------------------------------------------------------------+
|        File Writing Summary       |              Filename             |
+-----------------------------------------------------------------------+
|SU2 binary restart                 |restart_flow_databladeVALIDATION_Blade_17.dat|
|                                   |                     (459.842 MB/s)|
|Paraview                           |volume_flow_databladeVALIDATION_Blade_17.vtu|
|                                   |                     (687.596 MB/s)|
|Paraview surface                   |surface_flowdatabladeVALIDATION_Blade_17.vtu|
|                                   |                     (52.2785 MB/s)|
|SU2 ASCII restart                  |restart_flow_databladeVALIDATION_Blade_17.csv|
|                                   |                      (21.222 MB/s)|
|CSV file                           |surface_flowdatabladeVALIDATION_Blade_17.csv|
|                                   |                     (17.9103 MB/s)|
+-----------------------------------------------------------------------+
+--------------------------------------+
|  Inner_Iter|    Cur_Time|    rms[Rho]|
+--------------------------------------+
|        1760|  0.0000e+00|   -0.722181|
|        1770|  0.0000e+00|   -0.724535|
|        1780|  0.0000e+00|   -0.728386|
|        1790|  0.0000e+00|   -0.732920|
|        1800|  0.0000e+00|   -0.736528|
+-----------------------------------------------------------------------+
|        File Writing Summary       |              Filename             |
+-----------------------------------------------------------------------+
|SU2 binary restart                 |restart_flow_databladeVALIDATION_Blade_17.dat|
|                                   |                     (7155.09 MB/s)|
|Paraview                           |volume_flow_databladeVALIDATION_Blade_17.vtu|
|                                   |                     (561.791 MB/s)|
|Paraview surface                   |surface_flowdatabladeVALIDATION_Blade_17.vtu|
|                                   |                     (45.6913 MB/s)|
|SU2 ASCII restart                  |restart_flow_databladeVALIDATION_Blade_17.csv|
|                                   |                      (21.434 MB/s)|
|CSV file                           |surface_flowdatabladeVALIDATION_Blade_17.csv|
|                                   |                     (16.3366 MB/s)|
+-----------------------------------------------------------------------+
+--------------------------------------+
|  Inner_Iter|    Cur_Time|    rms[Rho]|
+--------------------------------------+
|        1810|  0.0000e+00|   -0.739272|
|        1820|  0.0000e+00|   -0.743548|
|        1830|  0.0000e+00|   -0.748934|
|        1840|  0.0000e+00|   -0.752431|
|        1850|  0.0000e+00|   -0.756741|
+-----------------------------------------------------------------------+
|        File Writing Summary       |              Filename             |
+-----------------------------------------------------------------------+
|SU2 binary restart                 |restart_flow_databladeVALIDATION_Blade_17.dat|
|                                   |                     (6882.51 MB/s)|
|Paraview                           |volume_flow_databladeVALIDATION_Blade_17.vtu|
|                                   |                      (633.81 MB/s)|
|Paraview surface                   |surface_flowdatabladeVALIDATION_Blade_17.vtu|
|                                   |                     (49.5074 MB/s)|
|SU2 ASCII restart                  |restart_flow_databladeVALIDATION_Blade_17.csv|
|                                   |                     (21.7206 MB/s)|
|CSV file                           |surface_flowdatabladeVALIDATION_Blade_17.csv|
|                                   |                     (17.8469 MB/s)|
+-----------------------------------------------------------------------+
+--------------------------------------+
|  Inner_Iter|    Cur_Time|    rms[Rho]|
+--------------------------------------+
|        1860|  0.0000e+00|   -0.762129|
|        1870|  0.0000e+00|   -0.767463|
|        1880|  0.0000e+00|   -0.770317|
|        1890|  0.0000e+00|   -0.775283|
|        1900|  0.0000e+00|   -0.781483|
+-----------------------------------------------------------------------+
|        File Writing Summary       |              Filename             |
+-----------------------------------------------------------------------+
|SU2 binary restart                 |restart_flow_databladeVALIDATION_Blade_17.dat|
|                                   |                     (6794.72 MB/s)|
|Paraview                           |volume_flow_databladeVALIDATION_Blade_17.vtu|
|                                   |                     (603.637 MB/s)|
|Paraview surface                   |surface_flowdatabladeVALIDATION_Blade_17.vtu|
|                                   |                     (48.7004 MB/s)|
|SU2 ASCII restart                  |restart_flow_databladeVALIDATION_Blade_17.csv|
|                                   |                     (21.4575 MB/s)|
|CSV file                           |surface_flowdatabladeVALIDATION_Blade_17.csv|
|                                   |                     (17.2145 MB/s)|
+-----------------------------------------------------------------------+
+--------------------------------------+
|  Inner_Iter|    Cur_Time|    rms[Rho]|
+--------------------------------------+
|        1910|  0.0000e+00|   -0.785815|
|        1920|  0.0000e+00|   -0.790291|
|        1930|  0.0000e+00|   -0.795384|
|        1940|  0.0000e+00|   -0.801786|
|        1950|  0.0000e+00|   -0.805988|
+-----------------------------------------------------------------------+
|        File Writing Summary       |              Filename             |
+-----------------------------------------------------------------------+
|SU2 binary restart                 |restart_flow_databladeVALIDATION_Blade_17.dat|
|                                   |                     (7057.51 MB/s)|
|Paraview                           |volume_flow_databladeVALIDATION_Blade_17.vtu|
|                                   |                     (612.104 MB/s)|
|Paraview surface                   |surface_flowdatabladeVALIDATION_Blade_17.vtu|
|                                   |                     (42.6313 MB/s)|
|SU2 ASCII restart                  |restart_flow_databladeVALIDATION_Blade_17.csv|
|                                   |                     (21.4232 MB/s)|
|CSV file                           |surface_flowdatabladeVALIDATION_Blade_17.csv|
|                                   |                     (17.1427 MB/s)|
+-----------------------------------------------------------------------+
+--------------------------------------+
|  Inner_Iter|    Cur_Time|    rms[Rho]|
+--------------------------------------+
|        1960|  0.0000e+00|   -0.813319|
|        1970|  0.0000e+00|   -0.819935|
|        1980|  0.0000e+00|   -0.825242|
|        1990|  0.0000e+00|   -0.830676|
|        2000|  0.0000e+00|   -0.838414|
+-----------------------------------------------------------------------+
|        File Writing Summary       |              Filename             |
+-----------------------------------------------------------------------+
|SU2 binary restart                 |restart_flow_databladeVALIDATION_Blade_17.dat|
|                                   |                     (6721.59 MB/s)|
|Paraview                           |volume_flow_databladeVALIDATION_Blade_17.vtu|
|                                   |                     (622.741 MB/s)|
|Paraview surface                   |surface_flowdatabladeVALIDATION_Blade_17.vtu|
|                                   |                     (51.1383 MB/s)|
|SU2 ASCII restart                  |restart_flow_databladeVALIDATION_Blade_17.csv|
|                                   |                     (21.0515 MB/s)|
|CSV file                           |surface_flowdatabladeVALIDATION_Blade_17.csv|
|                                   |                     (18.4846 MB/s)|
+-----------------------------------------------------------------------+
+--------------------------------------+
|  Inner_Iter|    Cur_Time|    rms[Rho]|
+--------------------------------------+
|        2010|  0.0000e+00|   -0.846195|
|        2020|  0.0000e+00|   -0.851296|
|        2030|  0.0000e+00|   -0.858089|
|        2040|  0.0000e+00|   -0.867231|
|        2050|  0.0000e+00|   -0.876271|
+-----------------------------------------------------------------------+
|        File Writing Summary       |              Filename             |
+-----------------------------------------------------------------------+
|SU2 binary restart                 |restart_flow_databladeVALIDATION_Blade_17.dat|
|                                   |                      (7000.9 MB/s)|
|Paraview                           |volume_flow_databladeVALIDATION_Blade_17.vtu|
|                                   |                     (612.886 MB/s)|
|Paraview surface                   |surface_flowdatabladeVALIDATION_Blade_17.vtu|
|                                   |                     (52.0874 MB/s)|
|SU2 ASCII restart                  |restart_flow_databladeVALIDATION_Blade_17.csv|
|                                   |                     (21.9998 MB/s)|
|CSV file                           |surface_flowdatabladeVALIDATION_Blade_17.csv|
|                                   |                      (16.987 MB/s)|
+-----------------------------------------------------------------------+
+--------------------------------------+
|  Inner_Iter|    Cur_Time|    rms[Rho]|
+--------------------------------------+
|        2060|  0.0000e+00|   -0.881139|
|        2070|  0.0000e+00|   -0.889373|
|        2080|  0.0000e+00|   -0.899978|
|        2090|  0.0000e+00|   -0.908483|
|        2100|  0.0000e+00|   -0.917125|
+-----------------------------------------------------------------------+
|        File Writing Summary       |              Filename             |
+-----------------------------------------------------------------------+
|SU2 binary restart                 |restart_flow_databladeVALIDATION_Blade_17.dat|
|                                   |                     (7159.34 MB/s)|
|Paraview                           |volume_flow_databladeVALIDATION_Blade_17.vtu|
|                                   |                     (595.053 MB/s)|
|Paraview surface                   |surface_flowdatabladeVALIDATION_Blade_17.vtu|
|                                   |                     (51.7141 MB/s)|
|SU2 ASCII restart                  |restart_flow_databladeVALIDATION_Blade_17.csv|
|                                   |                     (21.3805 MB/s)|
|CSV file                           |surface_flowdatabladeVALIDATION_Blade_17.csv|
|                                   |                     (19.8091 MB/s)|
+-----------------------------------------------------------------------+
+--------------------------------------+
|  Inner_Iter|    Cur_Time|    rms[Rho]|
+--------------------------------------+
|        2110|  0.0000e+00|   -0.931088|
|        2120|  0.0000e+00|   -0.943174|
|        2130|  0.0000e+00|   -0.951069|
|        2140|  0.0000e+00|   -0.960507|
|        2150|  0.0000e+00|   -0.972556|
+-----------------------------------------------------------------------+
|        File Writing Summary       |              Filename             |
+-----------------------------------------------------------------------+
|SU2 binary restart                 |restart_flow_databladeVALIDATION_Blade_17.dat|
|                                   |                     (6857.11 MB/s)|
|Paraview                           |volume_flow_databladeVALIDATION_Blade_17.vtu|
|                                   |                     (623.986 MB/s)|
|Paraview surface                   |surface_flowdatabladeVALIDATION_Blade_17.vtu|
|                                   |                     (43.7989 MB/s)|
|SU2 ASCII restart                  |restart_flow_databladeVALIDATION_Blade_17.csv|
|                                   |                      (21.615 MB/s)|
|CSV file                           |surface_flowdatabladeVALIDATION_Blade_17.csv|
|                                   |                     (19.4213 MB/s)|
+-----------------------------------------------------------------------+
+--------------------------------------+
|  Inner_Iter|    Cur_Time|    rms[Rho]|
+--------------------------------------+
|        2160|  0.0000e+00|   -0.982152|
|        2170|  0.0000e+00|   -0.991822|
|        2180|  0.0000e+00|   -1.005368|
|        2190|  0.0000e+00|   -1.018813|
|        2200|  0.0000e+00|   -1.027559|
+-----------------------------------------------------------------------+
|        File Writing Summary       |              Filename             |
+-----------------------------------------------------------------------+
|SU2 binary restart                 |restart_flow_databladeVALIDATION_Blade_17.dat|
|                                   |                     (6957.87 MB/s)|
|Paraview                           |volume_flow_databladeVALIDATION_Blade_17.vtu|
|                                   |                     (627.927 MB/s)|
|Paraview surface                   |surface_flowdatabladeVALIDATION_Blade_17.vtu|
|                                   |                     (42.0315 MB/s)|
|SU2 ASCII restart                  |restart_flow_databladeVALIDATION_Blade_17.csv|
|                                   |                     (21.6358 MB/s)|
|CSV file                           |surface_flowdatabladeVALIDATION_Blade_17.csv|
|                                   |                     (18.0544 MB/s)|
+-----------------------------------------------------------------------+
+--------------------------------------+
|  Inner_Iter|    Cur_Time|    rms[Rho]|
+--------------------------------------+
|        2210|  0.0000e+00|   -1.038995|
|        2220|  0.0000e+00|   -1.060403|
|        2230|  0.0000e+00|   -1.070523|
|        2240|  0.0000e+00|   -1.083985|
|        2250|  0.0000e+00|   -1.100125|
+-----------------------------------------------------------------------+
|        File Writing Summary       |              Filename             |
+-----------------------------------------------------------------------+
|SU2 binary restart                 |restart_flow_databladeVALIDATION_Blade_17.dat|
|                                   |                     (6965.23 MB/s)|
|Paraview                           |volume_flow_databladeVALIDATION_Blade_17.vtu|
|                                   |                      (625.95 MB/s)|
|Paraview surface                   |surface_flowdatabladeVALIDATION_Blade_17.vtu|
|                                   |                     (53.2963 MB/s)|
|SU2 ASCII restart                  |restart_flow_databladeVALIDATION_Blade_17.csv|
|                                   |                     (21.3798 MB/s)|
|CSV file                           |surface_flowdatabladeVALIDATION_Blade_17.csv|
|                                   |                      (18.188 MB/s)|
+-----------------------------------------------------------------------+
+--------------------------------------+
|  Inner_Iter|    Cur_Time|    rms[Rho]|
+--------------------------------------+
|        2260|  0.0000e+00|   -1.108744|
|        2270|  0.0000e+00|   -1.119929|
|        2280|  0.0000e+00|   -1.134651|
|        2290|  0.0000e+00|   -1.148884|
|        2300|  0.0000e+00|   -1.159458|
+-----------------------------------------------------------------------+
|        File Writing Summary       |              Filename             |
+-----------------------------------------------------------------------+
|SU2 binary restart                 |restart_flow_databladeVALIDATION_Blade_17.dat|
|                                   |                     (7008.35 MB/s)|
|Paraview                           |volume_flow_databladeVALIDATION_Blade_17.vtu|
|                                   |                     (668.034 MB/s)|
|Paraview surface                   |surface_flowdatabladeVALIDATION_Blade_17.vtu|
|                                   |                     (52.6225 MB/s)|
|SU2 ASCII restart                  |restart_flow_databladeVALIDATION_Blade_17.csv|
|                                   |                     (21.9498 MB/s)|
|CSV file                           |surface_flowdatabladeVALIDATION_Blade_17.csv|
|                                   |                     (17.6468 MB/s)|
+-----------------------------------------------------------------------+
+--------------------------------------+
|  Inner_Iter|    Cur_Time|    rms[Rho]|
+--------------------------------------+
|        2310|  0.0000e+00|   -1.171963|
|        2320|  0.0000e+00|   -1.189956|
|        2330|  0.0000e+00|   -1.200297|
|        2340|  0.0000e+00|   -1.221775|
|        2350|  0.0000e+00|   -1.237398|
+-----------------------------------------------------------------------+
|        File Writing Summary       |              Filename             |
+-----------------------------------------------------------------------+
|SU2 binary restart                 |restart_flow_databladeVALIDATION_Blade_17.dat|
|                                   |                     (5259.57 MB/s)|
|Paraview                           |volume_flow_databladeVALIDATION_Blade_17.vtu|
[...]
|SU2 binary restart                 |restart_flow_databladeVALIDATION_Blade_17.dat|
|                                   |                     (6995.49 MB/s)|
|Paraview                           |volume_flow_databladeVALIDATION_Blade_17.vtu|
|                                   |                     (611.235 MB/s)|
|Paraview surface                   |surface_flowdatabladeVALIDATION_Blade_17.vtu|
|                                   |                     (52.8804 MB/s)|
|SU2 ASCII restart                  |restart_flow_databladeVALIDATION_Blade_17.csv|
|                                   |                      (21.588 MB/s)|
|CSV file                           |surface_flowdatabladeVALIDATION_Blade_17.csv|
|                                   |                     (18.9034 MB/s)|
+-----------------------------------------------------------------------+
+--------------------------------------+
|  Inner_Iter|    Cur_Time|    rms[Rho]|
+--------------------------------------+
|        6410|  0.0000e+00|   -3.373649|
|        6420|  0.0000e+00|   -3.371494|
|        6430|  0.0000e+00|   -3.362352|
|        6440|  0.0000e+00|   -3.353117|
|        6450|  0.0000e+00|   -3.343826|
+-----------------------------------------------------------------------+
|        File Writing Summary       |              Filename             |
+-----------------------------------------------------------------------+
|SU2 binary restart                 |restart_flow_databladeVALIDATION_Blade_17.dat|
|                                   |                     (7009.03 MB/s)|
|Paraview                           |volume_flow_databladeVALIDATION_Blade_17.vtu|
|                                   |                     (620.103 MB/s)|
|Paraview surface                   |surface_flowdatabladeVALIDATION_Blade_17.vtu|
|                                   |                     (62.1993 MB/s)|
|SU2 ASCII restart                  |restart_flow_databladeVALIDATION_Blade_17.csv|
|                                   |                     (21.4669 MB/s)|
|CSV file                           |surface_flowdatabladeVALIDATION_Blade_17.csv|
|                                   |                     (17.3362 MB/s)|
+-----------------------------------------------------------------------+
+--------------------------------------+
|  Inner_Iter|    Cur_Time|    rms[Rho]|
+--------------------------------------+
|        6460|  0.0000e+00|   -3.324960|
|        6470|  0.0000e+00|   -3.293982|
|        6480|  0.0000e+00|   -3.287354|
|        6490|  0.0000e+00|   -3.306222|
|        6500|  0.0000e+00|   -3.307010|
+-----------------------------------------------------------------------+
|        File Writing Summary       |              Filename             |
+-----------------------------------------------------------------------+
|SU2 binary restart                 |restart_flow_databladeVALIDATION_Blade_17.dat|
|                                   |                     (6802.38 MB/s)|
|Paraview                           |volume_flow_databladeVALIDATION_Blade_17.vtu|
|                                   |                     (529.505 MB/s)|
|Paraview surface                   |surface_flowdatabladeVALIDATION_Blade_17.vtu|
|                                   |                     (48.0914 MB/s)|
|SU2 ASCII restart                  |restart_flow_databladeVALIDATION_Blade_17.csv|
|                                   |                     (21.0828 MB/s)|
|CSV file                           |surface_flowdatabladeVALIDATION_Blade_17.csv|
|                                   |                     (16.7231 MB/s)|
+-----------------------------------------------------------------------+
+--------------------------------------+
|  Inner_Iter|    Cur_Time|    rms[Rho]|
+--------------------------------------+
|        6510|  0.0000e+00|   -3.332956|
|        6520|  0.0000e+00|   -3.339841|
|        6530|  0.0000e+00|   -3.355616|
|        6540|  0.0000e+00|   -3.379077|
|        6550|  0.0000e+00|   -3.405311|
+-----------------------------------------------------------------------+
|        File Writing Summary       |              Filename             |
+-----------------------------------------------------------------------+
|SU2 binary restart                 |restart_flow_databladeVALIDATION_Blade_17.dat|
|                                   |                     (5327.25 MB/s)|
|Paraview                           |volume_flow_databladeVALIDATION_Blade_17.vtu|
|                                   |                      (606.32 MB/s)|
|Paraview surface                   |surface_flowdatabladeVALIDATION_Blade_17.vtu|
|                                   |                     (52.6225 MB/s)|
|SU2 ASCII restart                  |restart_flow_databladeVALIDATION_Blade_17.csv|
|                                   |                     (21.4531 MB/s)|
|CSV file                           |surface_flowdatabladeVALIDATION_Blade_17.csv|
|                                   |                     (17.8962 MB/s)|
+-----------------------------------------------------------------------+
+--------------------------------------+
|  Inner_Iter|    Cur_Time|    rms[Rho]|
+--------------------------------------+
|        6560|  0.0000e+00|   -3.442782|
|        6570|  0.0000e+00|   -3.497228|
|        6580|  0.0000e+00|   -3.555953|
|        6590|  0.0000e+00|   -3.629699|
|        6600|  0.0000e+00|   -3.678499|
+-----------------------------------------------------------------------+
|        File Writing Summary       |              Filename             |
+-----------------------------------------------------------------------+
|SU2 binary restart                 |restart_flow_databladeVALIDATION_Blade_17.dat|
|                                   |                     (6689.94 MB/s)|
|Paraview                           |volume_flow_databladeVALIDATION_Blade_17.vtu|
|                                   |                     (622.826 MB/s)|
|Paraview surface                   |surface_flowdatabladeVALIDATION_Blade_17.vtu|
|                                   |                     (40.9446 MB/s)|
|SU2 ASCII restart                  |restart_flow_databladeVALIDATION_Blade_17.csv|
|                                   |                     (20.1963 MB/s)|
|CSV file                           |surface_flowdatabladeVALIDATION_Blade_17.csv|
|                                   |                     (18.2366 MB/s)|
+-----------------------------------------------------------------------+
+--------------------------------------+
|  Inner_Iter|    Cur_Time|    rms[Rho]|
+--------------------------------------+
|        6610|  0.0000e+00|   -3.734510|
|        6620|  0.0000e+00|   -3.769402|
|        6630|  0.0000e+00|   -3.792794|
|        6640|  0.0000e+00|   -3.826357|
|        6650|  0.0000e+00|   -3.863240|
+-----------------------------------------------------------------------+
|        File Writing Summary       |              Filename             |
+-----------------------------------------------------------------------+
|SU2 binary restart                 |restart_flow_databladeVALIDATION_Blade_17.dat|
|                                   |                     (6700.46 MB/s)|
|Paraview                           |volume_flow_databladeVALIDATION_Blade_17.vtu|
|                                   |                     (628.448 MB/s)|
|Paraview surface                   |surface_flowdatabladeVALIDATION_Blade_17.vtu|
|                                   |                     (49.8538 MB/s)|
|SU2 ASCII restart                  |restart_flow_databladeVALIDATION_Blade_17.csv|
|                                   |                     (21.6298 MB/s)|
|CSV file                           |surface_flowdatabladeVALIDATION_Blade_17.csv|
|                                   |                     (19.3474 MB/s)|
+-----------------------------------------------------------------------+
+--------------------------------------+
|  Inner_Iter|    Cur_Time|    rms[Rho]|
+--------------------------------------+
|        6660|  0.0000e+00|   -3.860957|
|        6670|  0.0000e+00|   -3.889808|
|        6680|  0.0000e+00|   -3.921052|
|        6690|  0.0000e+00|   -3.917156|
|        6700|  0.0000e+00|   -3.915549|
+-----------------------------------------------------------------------+
|        File Writing Summary       |              Filename             |
+-----------------------------------------------------------------------+
|SU2 binary restart                 |restart_flow_databladeVALIDATION_Blade_17.dat|
|                                   |                     (6804.93 MB/s)|
|Paraview                           |volume_flow_databladeVALIDATION_Blade_17.vtu|
|                                   |                     (602.646 MB/s)|
|Paraview surface                   |surface_flowdatabladeVALIDATION_Blade_17.vtu|
|                                   |                      (50.811 MB/s)|
|SU2 ASCII restart                  |restart_flow_databladeVALIDATION_Blade_17.csv|
|                                   |                      (21.457 MB/s)|
|CSV file                           |surface_flowdatabladeVALIDATION_Blade_17.csv|
|                                   |                     (17.8692 MB/s)|
+-----------------------------------------------------------------------+
+--------------------------------------+
|  Inner_Iter|    Cur_Time|    rms[Rho]|
+--------------------------------------+
|        6710|  0.0000e+00|   -3.939088|
|        6720|  0.0000e+00|   -3.955621|
|        6730|  0.0000e+00|   -3.963266|
|        6740|  0.0000e+00|   -3.968629|
|        6750|  0.0000e+00|   -3.995781|
+-----------------------------------------------------------------------+
|        File Writing Summary       |              Filename             |
+-----------------------------------------------------------------------+
|SU2 binary restart                 |restart_flow_databladeVALIDATION_Blade_17.dat|
|                                   |                     (6874.67 MB/s)|
|Paraview                           |volume_flow_databladeVALIDATION_Blade_17.vtu|
|                                   |                      (624.26 MB/s)|
|Paraview surface                   |surface_flowdatabladeVALIDATION_Blade_17.vtu|
|                                   |                     (52.2981 MB/s)|
|SU2 ASCII restart                  |restart_flow_databladeVALIDATION_Blade_17.csv|
|                                   |                     (21.5869 MB/s)|
|CSV file                           |surface_flowdatabladeVALIDATION_Blade_17.csv|
|                                   |                     (19.1609 MB/s)|
+-----------------------------------------------------------------------+
+--------------------------------------+
|  Inner_Iter|    Cur_Time|    rms[Rho]|
+--------------------------------------+
|        6760|  0.0000e+00|   -4.001962|
|        6770|  0.0000e+00|   -4.017292|
|        6780|  0.0000e+00|   -4.046644|
|        6790|  0.0000e+00|   -4.040484|
|        6800|  0.0000e+00|   -4.045424|
+-----------------------------------------------------------------------+
|        File Writing Summary       |              Filename             |
+-----------------------------------------------------------------------+
|SU2 binary restart                 |restart_flow_databladeVALIDATION_Blade_17.dat|
|                                   |                     (7036.94 MB/s)|
|Paraview                           |volume_flow_databladeVALIDATION_Blade_17.vtu|
|                                   |                     (568.748 MB/s)|
|Paraview surface                   |surface_flowdatabladeVALIDATION_Blade_17.vtu|
|                                   |                      (52.308 MB/s)|
|SU2 ASCII restart                  |restart_flow_databladeVALIDATION_Blade_17.csv|
|                                   |                     (21.0946 MB/s)|
|CSV file                           |surface_flowdatabladeVALIDATION_Blade_17.csv|
|                                   |                     (17.8017 MB/s)|
+-----------------------------------------------------------------------+
+--------------------------------------+
|  Inner_Iter|    Cur_Time|    rms[Rho]|
+--------------------------------------+
|        6810|  0.0000e+00|   -4.056024|
|        6820|  0.0000e+00|   -3.999089|
|        6830|  0.0000e+00|   -3.977444|
|        6840|  0.0000e+00|   -3.976679|
|        6850|  0.0000e+00|   -3.980540|
+-----------------------------------------------------------------------+
|        File Writing Summary       |              Filename             |
+-----------------------------------------------------------------------+
|SU2 binary restart                 |restart_flow_databladeVALIDATION_Blade_17.dat|
|                                   |                     (6896.93 MB/s)|
|Paraview                           |volume_flow_databladeVALIDATION_Blade_17.vtu|
|                                   |                     (622.213 MB/s)|
|Paraview surface                   |surface_flowdatabladeVALIDATION_Blade_17.vtu|
|                                   |                     (48.8567 MB/s)|
|SU2 ASCII restart                  |restart_flow_databladeVALIDATION_Blade_17.csv|
|                                   |                     (21.3098 MB/s)|
|CSV file                           |surface_flowdatabladeVALIDATION_Blade_17.csv|
|                                   |                     (17.8489 MB/s)|
+-----------------------------------------------------------------------+
+--------------------------------------+
|  Inner_Iter|    Cur_Time|    rms[Rho]|
+--------------------------------------+
|        6860|  0.0000e+00|   -3.983749|
|        6870|  0.0000e+00|   -4.016495|
|        6880|  0.0000e+00|   -4.008747|
|        6890|  0.0000e+00|   -4.034214|
|        6900|  0.0000e+00|   -4.081169|
+-----------------------------------------------------------------------+
|        File Writing Summary       |              Filename             |
+-----------------------------------------------------------------------+
|SU2 binary restart                 |restart_flow_databladeVALIDATION_Blade_17.dat|
|                                   |                     (6909.42 MB/s)|
|Paraview                           |volume_flow_databladeVALIDATION_Blade_17.vtu|
|                                   |                     (632.493 MB/s)|
|Paraview surface                   |surface_flowdatabladeVALIDATION_Blade_17.vtu|
|                                   |                     (52.7124 MB/s)|
|SU2 ASCII restart                  |restart_flow_databladeVALIDATION_Blade_17.csv|
|                                   |                     (20.9728 MB/s)|
|CSV file                           |surface_flowdatabladeVALIDATION_Blade_17.csv|
|                                   |                     (16.7216 MB/s)|
+-----------------------------------------------------------------------+
+--------------------------------------+
|  Inner_Iter|    Cur_Time|    rms[Rho]|
+--------------------------------------+
|        6910|  0.0000e+00|   -4.118183|
|        6920|  0.0000e+00|   -4.169636|
|        6930|  0.0000e+00|   -4.221137|
|        6940|  0.0000e+00|   -4.267042|
|        6950|  0.0000e+00|   -4.322005|
+-----------------------------------------------------------------------+
|        File Writing Summary       |              Filename             |
+-----------------------------------------------------------------------+
|SU2 binary restart                 |restart_flow_databladeVALIDATION_Blade_17.dat|
|                                   |                     (6837.69 MB/s)|
|Paraview                           |volume_flow_databladeVALIDATION_Blade_17.vtu|
|                                   |                     (644.547 MB/s)|
|Paraview surface                   |surface_flowdatabladeVALIDATION_Blade_17.vtu|
|                                   |                     (51.9219 MB/s)|
|SU2 ASCII restart                  |restart_flow_databladeVALIDATION_Blade_17.csv|
|                                   |                     (21.9826 MB/s)|
|CSV file                           |surface_flowdatabladeVALIDATION_Blade_17.csv|
|                                   |                     (18.9204 MB/s)|
+-----------------------------------------------------------------------+
+--------------------------------------+
|  Inner_Iter|    Cur_Time|    rms[Rho]|
+--------------------------------------+
|        6960|  0.0000e+00|   -4.370185|
|        6970|  0.0000e+00|   -4.407930|
|        6980|  0.0000e+00|   -4.437947|
|        6990|  0.0000e+00|   -4.446234|
|        6999|  0.0000e+00|   -4.463828|

----------------------------- Solver Exit -------------------------------

Maximum number of iterations reached (ITER = 7000) before convergence.
+-----------------------------------------------------------------------+
|      Convergence Field     |     Value    |   Criterion  |  Converged |
+-----------------------------------------------------------------------+
|                    rms[Rho]|      -4.46383|          < -7|          No|
+-----------------------------------------------------------------------+
-------------------------------------------------------------------------
+-----------------------------------------------------------------------+
|        File Writing Summary       |              Filename             |
+-----------------------------------------------------------------------+
|SU2 binary restart                 |restart_flow_databladeVALIDATION_Blade_17.dat|
|                                   |                     (6587.14 MB/s)|
|Paraview                           |volume_flow_databladeVALIDATION_Blade_17.vtu|
|                                   |                     (575.541 MB/s)|
|Paraview surface                   |surface_flowdatabladeVALIDATION_Blade_17.vtu|
|                                   |                      (46.613 MB/s)|
|SU2 ASCII restart                  |restart_flow_databladeVALIDATION_Blade_17.csv|
|                                   |                     (20.8342 MB/s)|
|CSV file                           |surface_flowdatabladeVALIDATION_Blade_17.csv|
|                                   |                     (19.5343 MB/s)|
+-----------------------------------------------------------------------+

--------------------------- Finalizing Solver ---------------------------
Deleted CNumerics container.
Deleted CIntegration container.
Deleted CSolver container.
Deleted CIteration container.
Deleted CInterface container.
Deleted CGeometry container.
Deleted CFreeFormDefBox class.
Deleted CSurfaceMovement class.
Deleted CVolumetricMovement class.
Deleted CConfig container.
Deleted nInst container.
Deleted COutput class.
-------------------------------------------------------------------------


-------------------------- Performance Summary --------------------------
Simulation totals:
   Wall-clock time (hrs):   0.0880501 |            Core-hrs:      1.0566
                   Cores:          12 |          DOFs/point:           5
             Points/core:     2282.58 |   Ghost points/core:         103
 Ghost/Owned Point Ratio:   0.0451243 | 

Preprocessing phase:
       Preproc. Time (s):    0.201805 |   Preproc. Time (%):    0.063665

Compute phase:
        Compute Time (s):     315.713 |    Compute Time (%):     99.6003
         Iteration count:        7000 |         Avg. s/iter:   0.0451019
     Core-s/iter/Mpoints:      18.906 |           Mpoints/s:    0.634718

Output phase:
         Output Time (s):     1.06516 |     Output Time (%):    0.336034
            Output count:           1 |       Avg. s/output:     1.06516
 Restart Aggr. BW (MB/s):      926779 |           MB/s/core:     77231.6
-------------------------------------------------------------------------


------------------------- Exit Success (SU2_CFD) ------------------------

