
-------------------------------------------------------------------------
|    ___ _   _ ___                                                      |
|   / __| | | |_  )   Release 8.0.1 "Harrier"                           |
|   \__ \ |_| |/ /                                                      |
|   |___/\___//___|   Suite (Computational Fluid Dynamics Code)         |
|                                                                       |
-------------------------------------------------------------------------
| SU2 Project Website: https://su2code.github.io                        |
|                                                                       |
| The SU2 Project is maintained by the SU2 Foundation                   |
| (http://su2foundation.org)                                            |
-------------------------------------------------------------------------
| Copyright 2012-2024, SU2 Contributors                                 |
|                                                                       |
| SU2 is free software; you can redistribute it and/or                  |
| modify it under the terms of the GNU Lesser General Public            |
| License as published by the Free Software Foundation; either          |
| version 2.1 of the License, or (at your option) any later version.    |
|                                                                       |
| SU2 is distributed in the hope that it will be useful,                |
| but WITHOUT ANY WARRANTY; without even the implied warranty of        |
| MERCHANTABILITY or FITNESS FOR A PARTICULAR PURPOSE. See the GNU      |
| Lesser General Public License for more details.                       |
|                                                                       |
| You should have received a copy of the GNU Lesser General Public      |
| License along with SU2. If not, see <http://www.gnu.org/licenses/>.   |
-------------------------------------------------------------------------

Parsing config file for zone 0

----------------- Physical Case Definition ( Zone 0 ) -------------------
Compressible RANS equations.
Turbulence model: Spalart-Allmaras-noft2-BCM
Hybrid RANS/LES: No Hybrid RANS/LES
Mach number: 0.667.
Angle of attack (AoA): -4 deg, and angle of sideslip (AoS): 0 deg.
Reynolds number: 600000. Reference length 1.00217.
No restart solution, use the values at infinity (freestream).
Dimensional simulation.
The reference area will be computed using y(2D) or z(3D) projection.
The semi-span will be computed using the max y(3D) value.
The reference length is 1.00217 m.
Reference origin for moment evaluation is (0, 0, 0).
Surface(s) where the force coefficients are evaluated: blade1.

Surface(s) plotted in the output file: blade1.
Surface(s) to be analyzed in detail: inlet, outlet, blade1.
Input mesh file name: cascade2D_databladeVALIDATION_Blade_24.su2

--------------- Space Numerical Integration ( Zone 0 ) ------------------
Jameson-Schmidt-Turkel scheme (2nd order in space) for the flow inviscid terms.
JST viscous coefficients (2nd & 4th): 0.5, 0.02.
The method includes a grid stretching correction (p = 0.3).
Scalar upwind solver for the turbulence model.
First order integration in space.
Average of gradients with correction (viscous flow terms).
Average of gradients with correction (viscous turbulence terms).
Gradient for upwind reconstruction: inverse-distance weighted Least-Squares.
Gradient for viscous and source terms: inverse-distance weighted Least-Squares.

--------------- Time Numerical Integration  ( Zone 0 ) ------------------
Local time stepping (steady state simulation).
Euler implicit method for the flow equations.
FGMRES is used for solving the linear system.
Using a LU-SGS preconditioning.
Convergence criteria of the linear solver: 0.0001.
Max number of linear iterations: 10.
V Multigrid Cycle, with 3 multigrid levels.
Damping factor for the residual restriction: 0.75.
Damping factor for the correction prolongation: 0.75.
CFL adaptation. Factor down: 0.1, factor up: 1.2,
                lower limit: 0.1, upper limit: 100,
                acceptable linear residual: 0.001.
+-------------------------------------------+
|  MG Level| Presmooth|PostSmooth|CorrectSmo|
+-------------------------------------------+
|         0|         1|         0|         1|
|         1|         2|         2|         2|
|         2|         3|         3|         3|
|         3|         3|         0|         0|
+-------------------------------------------+
Courant-Friedrichs-Lewy number:       12
Euler implicit time integration for the turbulence model.

------------------ Convergence Criteria  ( Zone 0 ) ---------------------
Maximum number of solver subiterations: 7000.
Begin convergence monitoring at iteration 500.
Residual minimum value: 1e-7.
Cauchy series min. value: 1e-10.
Number of Cauchy elements: 100.
Begin windowed time average at iteration 0.

-------------------- Output Information ( Zone 0 ) ----------------------
File writing frequency: 
+------------------------------------+
|                     File| Frequency|
+------------------------------------+
|                  RESTART|        50|
|                 PARAVIEW|        50|
|         SURFACE_PARAVIEW|        50|
|                      CSV|        50|
|              SURFACE_CSV|        50|
+------------------------------------+
Writing the convergence history file every 1 inner iterations.
Writing the screen convergence history every 10 inner iterations.
The tabular file format is CSV (.csv).
Convergence history file name: history_databladeVALIDATION_Blade_24.
Forces breakdown file name: forces_breakdown.dat.
Surface file name: surface_flowdatabladeVALIDATION_Blade_24.
Volume file name: volume_flow_databladeVALIDATION_Blade_24.
Restart file name: restart_flow_databladeVALIDATION_Blade_24.dat.

------------- Config File Boundary Information ( Zone 0 ) ---------------
+-----------------------------------------------------------------------+
|                        Marker Type|                        Marker Name|
+-----------------------------------------------------------------------+
|                  Periodic boundary|               symmetricWallsBOTTOM|
|                                   |                  symmetricWallsTOP|
+-----------------------------------------------------------------------+
|                     Inlet boundary|                              inlet|
+-----------------------------------------------------------------------+
|                    Outlet boundary|                             outlet|
+-----------------------------------------------------------------------+
|                     Heat flux wall|                             blade1|
|                                   |                             blade2|
+-----------------------------------------------------------------------+

-------------------- Output Preprocessing ( Zone 0 ) --------------------
  Info: Ignoring the following screen output fields:
  LINSOL_ITER_TRANS, LINSOL_RESIDUAL_TRANS
Screen output fields: INNER_ITER, WALL_TIME, RMS_DENSITY
  Info: Ignoring the following history output groups:
  RMS_TKE, RMS_DISSIPATION
History output group(s): INNER_ITER, WALL_TIME, RMS_DENSITY, RMS_MOMENTUM-X, RMS_ENERGY, LINSOL, CFL_NUMBER, FLOW_COEFF_SURF, AERO_COEFF_SURF
Convergence field(s): RMS_DENSITY
Warning: No (valid) fields chosen for time convergence monitoring. Time convergence monitoring inactive.
Volume output fields: COORDINATES, SOLUTION, PRIMITIVE, RESIDUAL, TIMESTEP, MESH_QUALITY, VORTEX_IDENTIFICATION

------------------- Geometry Preprocessing ( Zone 0 ) -------------------
Two dimensional problem.
70599 grid points before partitioning.
110780 volume elements before partitioning.
5 surface markers.
30 boundary elements in index 0 (Marker = inlet).
327 boundary elements in index 1 (Marker = symmetricWallsBOTTOM).
327 boundary elements in index 2 (Marker = symmetricWallsTOP).
84 boundary elements in index 3 (Marker = outlet).
1186 boundary elements in index 4 (Marker = blade1).
Executing the partitioning functions.
Building the graph adjacency structure.
Calling ParMETIS... graph partitioning complete (1631 edge cuts).
Distributing ParMETIS coloring.
Rebalancing vertices.
Rebalancing volume element connectivity.
Rebalancing markers and surface elements.
72563 vertices including ghost points. 
112402 interior elements including halo cells. 
83620 triangles.
28782 quadrilaterals.
Establishing MPI communication patterns.
Setting point connectivity.
Renumbering points (Reverse Cuthill McKee Ordering).
Recomputing point connectivity.
Setting element connectivity.
Checking the numerical grid orientation.
All volume elements are correctly orientend.
There has been a re-orientation of 960 LINE surface elements.
Identifying edges and vertices.
Setting the control volume structure.
Area of the computational grid: 3.97472.
Searching for the closest normal neighbors to the surfaces.
Storing a mapping from global to local point index.
Compute the surface curvature.
Max K: 137.876. Mean K: 3.88273. Standard deviation K: 13.6667.
Checking for periodicity.
WARNING: Periodicity has been detected. Disabling multigrid. 
Computing mesh quality statistics for the dual control volumes.
+--------------------------------------------------------------+
|           Mesh Quality Metric|        Minimum|        Maximum|
+--------------------------------------------------------------+
|    Orthogonality Angle (deg.)|        55.2254|             90|
|     CV Face Area Aspect Ratio|        1.00007|        284.463|
|           CV Sub-Volume Ratio|              1|        20.4322|
+--------------------------------------------------------------+
Finding max control volume width.
Communicating number of neighbors.
Reference length = 1.01461 m.
Wetted area = 2.84272 m.
Area projection in the x-plane = 0.891086 m, y-plane = 1.01461 m.
Max. coordinate in the x-direction = 1.01451 m, y-direction = 0.761713 m.
Min. coordinate in the x-direction = -0.000105228 m, y-direction = -0.129377 m.
Matching the periodic boundary points for marker pair 1.
 Matched 656 points with a max distance of: 9.51049e-14.
Computing wall distances.

-------------------- Solver Preprocessing ( Zone 0 ) --------------------
Viscous flow: Computing pressure using the ideal gas law
based on the free-stream temperature and a density computed
from the Reynolds number.
Force coefficients computed using free-stream values.

-- Models:
+------------------------------------------------------------------------------+
|          Viscosity Model|        Conductivity Model|              Fluid Model|
+------------------------------------------------------------------------------+
|               SUTHERLAND|          CONSTANT_PRANDTL|                IDEAL_GAS|
+------------------------------------------------------------------------------+
-- Fluid properties:
+------------------------------------------------------------------------------+
|                  Name|    Dim. value|    Ref. value|      Unit|Non-dim. value|
+------------------------------------------------------------------------------+
|        Ref. Viscosity|     1.716e-05|             1|   N.s/m^2|     1.716e-05|
|      Sutherland Temp.|        273.15|             1|         K|        273.15|
|     Sutherland Const.|         110.4|             1|         K|         110.4|
+------------------------------------------------------------------------------+
|        Prandtl (Lam.)|             -|             -|         -|          0.72|
|       Prandtl (Turb.)|             -|             -|         -|           0.9|
+------------------------------------------------------------------------------+
|          Gas Constant|       287.058|             1|  N.m/kg.K|       287.058|
|      Spec. Heat Ratio|             -|             -|         -|           1.4|
+------------------------------------------------------------------------------+
-- Initial and free-stream conditions:
+------------------------------------------------------------------------------+
|                  Name|    Dim. value|    Ref. value|      Unit|Non-dim. value|
+------------------------------------------------------------------------------+
|       Static Pressure|       4109.38|             1|        Pa|       4109.38|
|               Density|     0.0477183|             1|    kg/m^3|     0.0477183|
|           Temperature|           300|             1|         K|           300|
|          Total Energy|        242112|             1|   m^2/s^2|        242112|
|            Velocity-X|       231.034|             1|       m/s|       231.034|
|            Velocity-Y|      -16.1555|             1|       m/s|      -16.1555|
|    Velocity Magnitude|       231.598|             1|       m/s|       231.598|
+------------------------------------------------------------------------------+
|             Viscosity|   1.84592e-05|             1|   N.s/m^2|   1.84592e-05|
|          Conductivity|             -|             1|   W/m^2.K|             -|
|     Turb. Kin. Energy|       98.5594|             1|   m^2/s^2|       98.5594|
|     Spec. Dissipation|   2.54783e+06|             1|       1/s|   2.54783e+06|
+------------------------------------------------------------------------------+
|           Mach Number|             -|             -|         -|         0.667|
|       Reynolds Number|             -|             -|         -|        600000|
+------------------------------------------------------------------------------+
Initialize Jacobian structure (Navier-Stokes). MG level: 0.
Initialize Jacobian structure (SA model).

------------------- Numerics Preprocessing ( Zone 0 ) -------------------

----------------- Integration Preprocessing ( Zone 0 ) ------------------

------------------- Iteration Preprocessing ( Zone 0 ) ------------------
Euler/Navier-Stokes/RANS fluid iteration.

------------------------------ Begin Solver -----------------------------

Simulation Run using the Single-zone Driver
WARNING: SU2 was not compiled for an AVX-capable architecture. Performance could be better,
         see https://su2code.github.io/docs_v7/Build-SU2-Linux-MacOS/#compiler-optimizations
+--------------------------------------+
|  Inner_Iter|   Time(sec)|    rms[Rho]|
+--------------------------------------+
|           0|  9.1982e-02|   -2.600543|
|          10|  7.3265e-02|   -3.217487|
|          20|  7.6892e-02|   -3.049140|
|          30|  7.5813e-02|   -3.065548|
|          40|  7.5028e-02|   -3.045920|
|          50|  7.6342e-02|   -2.827241|
+-----------------------------------------------------------------------+
|        File Writing Summary       |              Filename             |
+-----------------------------------------------------------------------+
|SU2 binary restart                 |restart_flow_databladeVALIDATION_Blade_24.dat|
|                                   |                     (13717.3 MB/s)|
|Paraview                           |volume_flow_databladeVALIDATION_Blade_24.vtu|
|                                   |                     (962.581 MB/s)|
|Paraview surface                   |surface_flowdatabladeVALIDATION_Blade_24.vtu|
|                                   |                     (119.456 MB/s)|
|SU2 ASCII restart                  |restart_flow_databladeVALIDATION_Blade_24.csv|
|                                   |                     (21.2191 MB/s)|
|CSV file                           |surface_flowdatabladeVALIDATION_Blade_24.csv|
|                                   |                     (20.9686 MB/s)|
+-----------------------------------------------------------------------+
+--------------------------------------+
|  Inner_Iter|   Time(sec)|    rms[Rho]|
+--------------------------------------+
|          60|  1.2272e-01|   -3.013960|
|          70|  1.1606e-01|   -3.121154|
|          80|  1.1092e-01|   -3.159262|
|          90|  1.0765e-01|   -3.149312|
|         100|  1.0492e-01|   -3.156372|
+-----------------------------------------------------------------------+
|        File Writing Summary       |              Filename             |
+-----------------------------------------------------------------------+
|SU2 binary restart                 |restart_flow_databladeVALIDATION_Blade_24.dat|
|                                   |                     (13450.2 MB/s)|
|Paraview                           |volume_flow_databladeVALIDATION_Blade_24.vtu|
|                                   |                      (627.23 MB/s)|
|Paraview surface                   |surface_flowdatabladeVALIDATION_Blade_24.vtu|
|                                   |                     (117.586 MB/s)|
|SU2 ASCII restart                  |restart_flow_databladeVALIDATION_Blade_24.csv|
|                                   |                     (21.6385 MB/s)|
|CSV file                           |surface_flowdatabladeVALIDATION_Blade_24.csv|
|                                   |                     (19.7768 MB/s)|
+-----------------------------------------------------------------------+
+--------------------------------------+
|  Inner_Iter|   Time(sec)|    rms[Rho]|
+--------------------------------------+
|         110|  1.2530e-01|   -3.182332|
|         120|  1.2082e-01|   -3.130383|
|         130|  1.1755e-01|   -3.086997|
|         140|  1.1444e-01|   -3.179475|
|         150|  1.1106e-01|   -3.201655|
+-----------------------------------------------------------------------+
|        File Writing Summary       |              Filename             |
+-----------------------------------------------------------------------+
|SU2 binary restart                 |restart_flow_databladeVALIDATION_Blade_24.dat|
|                                   |                     (12847.1 MB/s)|
|Paraview                           |volume_flow_databladeVALIDATION_Blade_24.vtu|
|                                   |                     (1063.21 MB/s)|
|Paraview surface                   |surface_flowdatabladeVALIDATION_Blade_24.vtu|
|                                   |                     (113.929 MB/s)|
|SU2 ASCII restart                  |restart_flow_databladeVALIDATION_Blade_24.csv|
|                                   |                      (21.277 MB/s)|
|CSV file                           |surface_flowdatabladeVALIDATION_Blade_24.csv|
|                                   |                      (19.805 MB/s)|
+-----------------------------------------------------------------------+
+--------------------------------------+
|  Inner_Iter|   Time(sec)|    rms[Rho]|
+--------------------------------------+
|         160|  1.2575e-01|   -3.170587|
|         170|  1.2265e-01|   -3.189358|
|         180|  1.2002e-01|   -3.247966|
|         190|  1.1835e-01|   -3.193277|
|         200|  1.1692e-01|   -3.064321|
+-----------------------------------------------------------------------+
|        File Writing Summary       |              Filename             |
+-----------------------------------------------------------------------+
|SU2 binary restart                 |restart_flow_databladeVALIDATION_Blade_24.dat|
|                                   |                     (7572.96 MB/s)|
|Paraview                           |volume_flow_databladeVALIDATION_Blade_24.vtu|
|                                   |                     (902.115 MB/s)|
|Paraview surface                   |surface_flowdatabladeVALIDATION_Blade_24.vtu|
|                                   |                     (64.1493 MB/s)|
|SU2 ASCII restart                  |restart_flow_databladeVALIDATION_Blade_24.csv|
|                                   |                     (20.6345 MB/s)|
|CSV file                           |surface_flowdatabladeVALIDATION_Blade_24.csv|
|                                   |                     (19.1851 MB/s)|
+-----------------------------------------------------------------------+
+--------------------------------------+
|  Inner_Iter|   Time(sec)|    rms[Rho]|
+--------------------------------------+
|         210|  1.2841e-01|   -3.130679|
|         220|  1.2609e-01|   -3.162000|
|         230|  1.2437e-01|   -3.177246|
|         240|  1.2334e-01|   -3.180037|
|         250|  1.2162e-01|   -3.225694|
+-----------------------------------------------------------------------+
|        File Writing Summary       |              Filename             |
+-----------------------------------------------------------------------+
|SU2 binary restart                 |restart_flow_databladeVALIDATION_Blade_24.dat|
|                                   |                     (13854.9 MB/s)|
|Paraview                           |volume_flow_databladeVALIDATION_Blade_24.vtu|
|                                   |                     (798.948 MB/s)|
|Paraview surface                   |surface_flowdatabladeVALIDATION_Blade_24.vtu|
|                                   |                     (83.5943 MB/s)|
|SU2 ASCII restart                  |restart_flow_databladeVALIDATION_Blade_24.csv|
|                                   |                     (21.1789 MB/s)|
|CSV file                           |surface_flowdatabladeVALIDATION_Blade_24.csv|
|                                   |                     (22.8216 MB/s)|
+-----------------------------------------------------------------------+
+--------------------------------------+
|  Inner_Iter|   Time(sec)|    rms[Rho]|
+--------------------------------------+
|         260|  1.3026e-01|   -3.248676|
|         270|  1.2866e-01|   -3.222780|
|         280|  1.2752e-01|   -3.244410|
|         290|  1.2528e-01|   -3.275579|
|         300|  1.2285e-01|   -3.334103|
+-----------------------------------------------------------------------+
|        File Writing Summary       |              Filename             |
+-----------------------------------------------------------------------+
|SU2 binary restart                 |restart_flow_databladeVALIDATION_Blade_24.dat|
|                                   |                     (12391.3 MB/s)|
|Paraview                           |volume_flow_databladeVALIDATION_Blade_24.vtu|
|                                   |                     (918.923 MB/s)|
|Paraview surface                   |surface_flowdatabladeVALIDATION_Blade_24.vtu|
|                                   |                     (78.7142 MB/s)|
|SU2 ASCII restart                  |restart_flow_databladeVALIDATION_Blade_24.csv|
|                                   |                     (20.5102 MB/s)|
|CSV file                           |surface_flowdatabladeVALIDATION_Blade_24.csv|
|                                   |                     (19.1631 MB/s)|
+-----------------------------------------------------------------------+
+--------------------------------------+
|  Inner_Iter|   Time(sec)|    rms[Rho]|
+--------------------------------------+
|         310|  1.2992e-01|   -3.350977|
|         320|  1.2833e-01|   -3.407445|
|         330|  1.2735e-01|   -3.367461|
|         340|  1.2601e-01|   -3.462665|
|         350|  1.2465e-01|   -3.493075|
+-----------------------------------------------------------------------+
|        File Writing Summary       |              Filename             |
+-----------------------------------------------------------------------+
|SU2 binary restart                 |restart_flow_databladeVALIDATION_Blade_24.dat|
|                                   |                     (12260.2 MB/s)|
|Paraview                           |volume_flow_databladeVALIDATION_Blade_24.vtu|
|                                   |                     (1034.54 MB/s)|
|Paraview surface                   |surface_flowdatabladeVALIDATION_Blade_24.vtu|
|                                   |                     (75.6633 MB/s)|
|SU2 ASCII restart                  |restart_flow_databladeVALIDATION_Blade_24.csv|
|                                   |                      (21.114 MB/s)|
|CSV file                           |surface_flowdatabladeVALIDATION_Blade_24.csv|
|                                   |                     (20.3933 MB/s)|
+-----------------------------------------------------------------------+
+--------------------------------------+
|  Inner_Iter|   Time(sec)|    rms[Rho]|
+--------------------------------------+
|         360|  1.3070e-01|   -3.510100|
|         370|  1.2938e-01|   -3.518817|
|         380|  1.2786e-01|   -3.547151|
|         390|  1.2632e-01|   -3.583428|
|         400|  1.2510e-01|   -3.577464|
+-----------------------------------------------------------------------+
|        File Writing Summary       |              Filename             |
+-----------------------------------------------------------------------+
|SU2 binary restart                 |restart_flow_databladeVALIDATION_Blade_24.dat|
|                                   |                     (13879.6 MB/s)|
|Paraview                           |volume_flow_databladeVALIDATION_Blade_24.vtu|
|                                   |                     (1174.57 MB/s)|
|Paraview surface                   |surface_flowdatabladeVALIDATION_Blade_24.vtu|
|                                   |                     (96.0081 MB/s)|
|SU2 ASCII restart                  |restart_flow_databladeVALIDATION_Blade_24.csv|
|                                   |                     (21.1103 MB/s)|
|CSV file                           |surface_flowdatabladeVALIDATION_Blade_24.csv|
|                                   |                     (19.9388 MB/s)|
+-----------------------------------------------------------------------+
+--------------------------------------+
|  Inner_Iter|   Time(sec)|    rms[Rho]|
+--------------------------------------+
|         410|  1.3060e-01|   -3.590719|
|         420|  1.2917e-01|   -3.642077|
|         430|  1.2807e-01|   -3.639217|
|         440|  1.2724e-01|   -3.624268|
|         450|  1.2605e-01|   -3.671214|
+-----------------------------------------------------------------------+
|        File Writing Summary       |              Filename             |
+-----------------------------------------------------------------------+
|SU2 binary restart                 |restart_flow_databladeVALIDATION_Blade_24.dat|
|                                   |                     (13012.9 MB/s)|
|Paraview                           |volume_flow_databladeVALIDATION_Blade_24.vtu|
|                                   |                     (1100.76 MB/s)|
|Paraview surface                   |surface_flowdatabladeVALIDATION_Blade_24.vtu|
|                                   |                     (104.647 MB/s)|
|SU2 ASCII restart                  |restart_flow_databladeVALIDATION_Blade_24.csv|
|                                   |                     (21.3869 MB/s)|
|CSV file                           |surface_flowdatabladeVALIDATION_Blade_24.csv|
|                                   |                     (21.2995 MB/s)|
+-----------------------------------------------------------------------+
+--------------------------------------+
|  Inner_Iter|   Time(sec)|    rms[Rho]|
+--------------------------------------+
|         460|  1.3065e-01|   -3.696917|
|         470|  1.2962e-01|   -3.697685|
|         480|  1.2866e-01|   -3.709803|
|         490|  1.2766e-01|   -3.720310|
|         500|  1.2680e-01|   -3.747631|
+-----------------------------------------------------------------------+
|        File Writing Summary       |              Filename             |
+-----------------------------------------------------------------------+
|SU2 binary restart                 |restart_flow_databladeVALIDATION_Blade_24.dat|
|                                   |                     (12653.6 MB/s)|
|Paraview                           |volume_flow_databladeVALIDATION_Blade_24.vtu|
|                                   |                     (1140.51 MB/s)|
|Paraview surface                   |surface_flowdatabladeVALIDATION_Blade_24.vtu|
|                                   |                     (97.7204 MB/s)|
|SU2 ASCII restart                  |restart_flow_databladeVALIDATION_Blade_24.csv|
|                                   |                     (19.9511 MB/s)|
|CSV file                           |surface_flowdatabladeVALIDATION_Blade_24.csv|
|                                   |                     (20.1557 MB/s)|
+-----------------------------------------------------------------------+
+--------------------------------------+
|  Inner_Iter|   Time(sec)|    rms[Rho]|
+--------------------------------------+
|         510|  1.3179e-01|   -3.728570|
|         520|  1.3083e-01|   -3.772434|
|         530|  1.3002e-01|   -3.821781|
|         540|  1.2945e-01|   -3.839007|
|         550|  1.2873e-01|   -3.795989|
+-----------------------------------------------------------------------+
|        File Writing Summary       |              Filename             |
+-----------------------------------------------------------------------+
|SU2 binary restart                 |restart_flow_databladeVALIDATION_Blade_24.dat|
|                                   |                     (14610.2 MB/s)|
|Paraview                           |volume_flow_databladeVALIDATION_Blade_24.vtu|
|                                   |                      (905.26 MB/s)|
|Paraview surface                   |surface_flowdatabladeVALIDATION_Blade_24.vtu|
|                                   |                     (73.8418 MB/s)|
|SU2 ASCII restart                  |restart_flow_databladeVALIDATION_Blade_24.csv|
|                                   |                     (20.9098 MB/s)|
|CSV file                           |surface_flowdatabladeVALIDATION_Blade_24.csv|
|                                   |                     (20.8814 MB/s)|
+-----------------------------------------------------------------------+
+--------------------------------------+
|  Inner_Iter|   Time(sec)|    rms[Rho]|
+--------------------------------------+
|         560|  1.3264e-01|   -3.870306|
|         570|  1.3170e-01|   -3.906294|
|         580|  1.3083e-01|   -3.892098|
|         590|  1.3005e-01|   -3.905197|
|         600|  1.2913e-01|   -3.956406|
+-----------------------------------------------------------------------+
|        File Writing Summary       |              Filename             |
+-----------------------------------------------------------------------+
|SU2 binary restart                 |restart_flow_databladeVALIDATION_Blade_24.dat|
|                                   |                     (5069.29 MB/s)|
|Paraview                           |volume_flow_databladeVALIDATION_Blade_24.vtu|
|                                   |                     (981.862 MB/s)|
|Paraview surface                   |surface_flowdatabladeVALIDATION_Blade_24.vtu|
|                                   |                     (82.9586 MB/s)|
|SU2 ASCII restart                  |restart_flow_databladeVALIDATION_Blade_24.csv|
|                                   |                     (20.7056 MB/s)|
|CSV file                           |surface_flowdatabladeVALIDATION_Blade_24.csv|
|                                   |                     (20.0835 MB/s)|
+-----------------------------------------------------------------------+
+--------------------------------------+
|  Inner_Iter|   Time(sec)|    rms[Rho]|
+--------------------------------------+
|         610|  1.3282e-01|   -3.948795|
|         620|  1.3203e-01|   -3.909371|
|         630|  1.3117e-01|   -3.954737|
|         640|  1.3035e-01|   -3.979062|
|         650|  1.2952e-01|   -3.979120|
+-----------------------------------------------------------------------+
|        File Writing Summary       |              Filename             |
+-----------------------------------------------------------------------+
|SU2 binary restart                 |restart_flow_databladeVALIDATION_Blade_24.dat|
|                                   |                     (15002.8 MB/s)|
|Paraview                           |volume_flow_databladeVALIDATION_Blade_24.vtu|
|                                   |                     (1164.25 MB/s)|
|Paraview surface                   |surface_flowdatabladeVALIDATION_Blade_24.vtu|
|                                   |                     (87.4482 MB/s)|
|SU2 ASCII restart                  |restart_flow_databladeVALIDATION_Blade_24.csv|
|                                   |                      (21.505 MB/s)|
|CSV file                           |surface_flowdatabladeVALIDATION_Blade_24.csv|
|                                   |                      (20.379 MB/s)|
+-----------------------------------------------------------------------+
+--------------------------------------+
|  Inner_Iter|   Time(sec)|    rms[Rho]|
+--------------------------------------+
|         660|  1.3284e-01|   -3.962333|
|         670|  1.3197e-01|   -4.022666|
|         680|  1.3118e-01|   -4.029316|
|         690|  1.3040e-01|   -3.995467|
|         700|  1.2980e-01|   -4.014861|
+-----------------------------------------------------------------------+
|        File Writing Summary       |              Filename             |
+-----------------------------------------------------------------------+
|SU2 binary restart                 |restart_flow_databladeVALIDATION_Blade_24.dat|
|                                   |                       (14101 MB/s)|
|Paraview                           |volume_flow_databladeVALIDATION_Blade_24.vtu|
|                                   |                     (1052.85 MB/s)|
|Paraview surface                   |surface_flowdatabladeVALIDATION_Blade_24.vtu|
|                                   |                     (35.0365 MB/s)|
|SU2 ASCII restart                  |restart_flow_databladeVALIDATION_Blade_24.csv|
|                                   |                      (21.813 MB/s)|
|CSV file                           |surface_flowdatabladeVALIDATION_Blade_24.csv|
|                                   |                     (19.3212 MB/s)|
+-----------------------------------------------------------------------+
+--------------------------------------+
|  Inner_Iter|   Time(sec)|    rms[Rho]|
+--------------------------------------+
|         710|  1.3288e-01|   -4.072510|
|         720|  1.3208e-01|   -4.080215|
|         730|  1.3145e-01|   -4.052485|
|         740|  1.3082e-01|   -4.121911|
|         750|  1.3017e-01|   -4.143634|
+-----------------------------------------------------------------------+
|        File Writing Summary       |              Filename             |
+-----------------------------------------------------------------------+
|SU2 binary restart                 |restart_flow_databladeVALIDATION_Blade_24.dat|
|                                   |                     (13938.8 MB/s)|
|Paraview                           |volume_flow_databladeVALIDATION_Blade_24.vtu|
|                                   |                     (868.681 MB/s)|
|Paraview surface                   |surface_flowdatabladeVALIDATION_Blade_24.vtu|
|                                   |                     (85.1593 MB/s)|
|SU2 ASCII restart                  |restart_flow_databladeVALIDATION_Blade_24.csv|
|                                   |                     (20.9504 MB/s)|
|CSV file                           |surface_flowdatabladeVALIDATION_Blade_24.csv|
|                                   |                     (21.1117 MB/s)|
+-----------------------------------------------------------------------+
+--------------------------------------+
|  Inner_Iter|   Time(sec)|    rms[Rho]|
+--------------------------------------+
|         760|  1.3308e-01|   -4.122388|
|         770|  1.3248e-01|   -4.155516|
|         780|  1.3240e-01|   -4.144107|
|         790|  1.3223e-01|   -4.219576|
|         800|  1.3171e-01|   -4.218557|
+-----------------------------------------------------------------------+
|        File Writing Summary       |              Filename             |
+-----------------------------------------------------------------------+
|SU2 binary restart                 |restart_flow_databladeVALIDATION_Blade_24.dat|
|                                   |                     (13783.2 MB/s)|
|Paraview                           |volume_flow_databladeVALIDATION_Blade_24.vtu|
|                                   |                      (1001.1 MB/s)|
|Paraview surface                   |surface_flowdatabladeVALIDATION_Blade_24.vtu|
|                                   |                     (88.9616 MB/s)|
|SU2 ASCII restart                  |restart_flow_databladeVALIDATION_Blade_24.csv|
|                                   |                     (20.0941 MB/s)|
|CSV file                           |surface_flowdatabladeVALIDATION_Blade_24.csv|
|                                   |                     (19.4275 MB/s)|
+-----------------------------------------------------------------------+
+--------------------------------------+
|  Inner_Iter|   Time(sec)|    rms[Rho]|
+--------------------------------------+
|         810|  1.3471e-01|   -4.210025|
|         820|  1.3406e-01|   -4.256251|
|         830|  1.3405e-01|   -4.249278|
|         840|  1.3381e-01|   -4.220097|
|         850|  1.3340e-01|   -4.266306|
+-----------------------------------------------------------------------+
|        File Writing Summary       |              Filename             |
+-----------------------------------------------------------------------+
|SU2 binary restart                 |restart_flow_databladeVALIDATION_Blade_24.dat|
|                                   |                     (2380.62 MB/s)|
|Paraview                           |volume_flow_databladeVALIDATION_Blade_24.vtu|
|                                   |                     (890.103 MB/s)|
|Paraview surface                   |surface_flowdatabladeVALIDATION_Blade_24.vtu|
|                                   |                     (75.2759 MB/s)|
|SU2 ASCII restart                  |restart_flow_databladeVALIDATION_Blade_24.csv|
|                                   |                     (20.4765 MB/s)|
|CSV file                           |surface_flowdatabladeVALIDATION_Blade_24.csv|
|                                   |                     (16.7888 MB/s)|
+-----------------------------------------------------------------------+
+--------------------------------------+
|  Inner_Iter|   Time(sec)|    rms[Rho]|
+--------------------------------------+
|         860|  1.3602e-01|   -4.300281|
|         870|  1.3537e-01|   -4.311669|
|         880|  1.3481e-01|   -4.286399|
|         890|  1.3417e-01|   -4.354900|
|         900|  1.3362e-01|   -4.344293|
+-----------------------------------------------------------------------+
|        File Writing Summary       |              Filename             |
+-----------------------------------------------------------------------+
|SU2 binary restart                 |restart_flow_databladeVALIDATION_Blade_24.dat|
|                                   |                     (12711.4 MB/s)|
|Paraview                           |volume_flow_databladeVALIDATION_Blade_24.vtu|
|                                   |                     (1058.15 MB/s)|
|Paraview surface                   |surface_flowdatabladeVALIDATION_Blade_24.vtu|
|                                   |                     (92.9291 MB/s)|
|SU2 ASCII restart                  |restart_flow_databladeVALIDATION_Blade_24.csv|
|                                   |                      (21.429 MB/s)|
|CSV file                           |surface_flowdatabladeVALIDATION_Blade_24.csv|
|                                   |                     (21.6268 MB/s)|
+-----------------------------------------------------------------------+
+--------------------------------------+
|  Inner_Iter|   Time(sec)|    rms[Rho]|
+--------------------------------------+
|         910|  1.3595e-01|   -4.353742|
|         920|  1.3522e-01|   -4.392436|
|         930|  1.3455e-01|   -4.383912|
|         940|  1.3397e-01|   -4.359383|
|         950|  1.3341e-01|   -4.363325|
+-----------------------------------------------------------------------+
|        File Writing Summary       |              Filename             |
+-----------------------------------------------------------------------+
|SU2 binary restart                 |restart_flow_databladeVALIDATION_Blade_24.dat|
|                                   |                     (13698.2 MB/s)|
|Paraview                           |volume_flow_databladeVALIDATION_Blade_24.vtu|
|                                   |                        (1124 MB/s)|
|Paraview surface                   |surface_flowdatabladeVALIDATION_Blade_24.vtu|
|                                   |                     (89.6864 MB/s)|
|SU2 ASCII restart                  |restart_flow_databladeVALIDATION_Blade_24.csv|
|                                   |                     (20.6747 MB/s)|
|CSV file                           |surface_flowdatabladeVALIDATION_Blade_24.csv|
|                                   |                     (16.6399 MB/s)|
+-----------------------------------------------------------------------+
+--------------------------------------+
|  Inner_Iter|   Time(sec)|    rms[Rho]|
+--------------------------------------+
|         960|  1.3569e-01|   -4.377841|
|         970|  1.3513e-01|   -4.365822|
|         980|  1.3501e-01|   -4.335008|
|         990|  1.3486e-01|   -4.419429|
|        1000|  1.3446e-01|   -4.434757|
+-----------------------------------------------------------------------+
|        File Writing Summary       |              Filename             |
+-----------------------------------------------------------------------+
|SU2 binary restart                 |restart_flow_databladeVALIDATION_Blade_24.dat|
|                                   |                     (11775.6 MB/s)|
|Paraview                           |volume_flow_databladeVALIDATION_Blade_24.vtu|
|                                   |                     (881.315 MB/s)|
|Paraview surface                   |surface_flowdatabladeVALIDATION_Blade_24.vtu|
|                                   |                     (45.5799 MB/s)|
|SU2 ASCII restart                  |restart_flow_databladeVALIDATION_Blade_24.csv|
|                                   |                      (19.969 MB/s)|
|CSV file                           |surface_flowdatabladeVALIDATION_Blade_24.csv|
|                                   |                      (14.878 MB/s)|
+-----------------------------------------------------------------------+
+--------------------------------------+
|  Inner_Iter|   Time(sec)|    rms[Rho]|
+--------------------------------------+
|        1010|  1.3708e-01|   -4.434013|
|        1020|  1.3644e-01|   -4.482648|
|        1030|  1.3583e-01|   -4.492354|
|        1040|  1.3549e-01|   -4.475314|
|        1050|  1.3547e-01|   -4.491201|
+-----------------------------------------------------------------------+
|        File Writing Summary       |              Filename             |
+-----------------------------------------------------------------------+
|SU2 binary restart                 |restart_flow_databladeVALIDATION_Blade_24.dat|
|                                   |                     (14667.7 MB/s)|
|Paraview                           |volume_flow_databladeVALIDATION_Blade_24.vtu|
|                                   |                     (524.182 MB/s)|
|Paraview surface                   |surface_flowdatabladeVALIDATION_Blade_24.vtu|
|                                   |                      (45.451 MB/s)|
|SU2 ASCII restart                  |restart_flow_databladeVALIDATION_Blade_24.csv|
|                                   |                     (20.5757 MB/s)|
|CSV file                           |surface_flowdatabladeVALIDATION_Blade_24.csv|
|                                   |                     (18.7056 MB/s)|
+-----------------------------------------------------------------------+
+--------------------------------------+
|  Inner_Iter|   Time(sec)|    rms[Rho]|
+--------------------------------------+
|        1060|  1.3753e-01|   -4.528667|
|        1070|  1.3708e-01|   -4.545610|
|        1080|  1.3667e-01|   -4.529979|
|        1090|  1.3628e-01|   -4.565256|
|        1100|  1.3597e-01|   -4.548225|
+-----------------------------------------------------------------------+
|        File Writing Summary       |              Filename             |
+-----------------------------------------------------------------------+
|SU2 binary restart                 |restart_flow_databladeVALIDATION_Blade_24.dat|
|                                   |                     (12144.4 MB/s)|
|Paraview                           |volume_flow_databladeVALIDATION_Blade_24.vtu|
|                                   |                     (1023.23 MB/s)|
|Paraview surface                   |surface_flowdatabladeVALIDATION_Blade_24.vtu|
|                                   |                     (105.739 MB/s)|
|SU2 ASCII restart                  |restart_flow_databladeVALIDATION_Blade_24.csv|
|                                   |                     (21.4472 MB/s)|
|CSV file                           |surface_flowdatabladeVALIDATION_Blade_24.csv|
|                                   |                     (20.2149 MB/s)|
+-----------------------------------------------------------------------+
+--------------------------------------+
|  Inner_Iter|   Time(sec)|    rms[Rho]|
+--------------------------------------+
|        1110|  1.3799e-01|   -4.584962|
|        1120|  1.3746e-01|   -4.654661|
|        1130|  1.3697e-01|   -4.645338|
|        1140|  1.3653e-01|   -4.598988|
|        1150|  1.3599e-01|   -4.651221|
+-----------------------------------------------------------------------+
|        File Writing Summary       |              Filename             |
+-----------------------------------------------------------------------+
|SU2 binary restart                 |restart_flow_databladeVALIDATION_Blade_24.dat|
|                                   |                       (10835 MB/s)|
|Paraview                           |volume_flow_databladeVALIDATION_Blade_24.vtu|
|                                   |                     (1011.27 MB/s)|
|Paraview surface                   |surface_flowdatabladeVALIDATION_Blade_24.vtu|
|                                   |                     (80.5123 MB/s)|
|SU2 ASCII restart                  |restart_flow_databladeVALIDATION_Blade_24.csv|
|                                   |                     (21.2627 MB/s)|
|CSV file                           |surface_flowdatabladeVALIDATION_Blade_24.csv|
|                                   |                     (21.4258 MB/s)|
+-----------------------------------------------------------------------+
+--------------------------------------+
|  Inner_Iter|   Time(sec)|    rms[Rho]|
+--------------------------------------+
|        1160|  1.3780e-01|   -4.644397|
|        1170|  1.3737e-01|   -4.597926|
|        1180|  1.3693e-01|   -4.633310|
|        1190|  1.3642e-01|   -4.648339|
|        1200|  1.3593e-01|   -4.635773|
+-----------------------------------------------------------------------+
|        File Writing Summary       |              Filename             |
+-----------------------------------------------------------------------+
|SU2 binary restart                 |restart_flow_databladeVALIDATION_Blade_24.dat|
|                                   |                     (1610.63 MB/s)|
|Paraview                           |volume_flow_databladeVALIDATION_Blade_24.vtu|
|                                   |                     (780.925 MB/s)|
|Paraview surface                   |surface_flowdatabladeVALIDATION_Blade_24.vtu|
|                                   |                     (2.90915 MB/s)|
|SU2 ASCII restart                  |restart_flow_databladeVALIDATION_Blade_24.csv|
|                                   |                     (21.4653 MB/s)|
|CSV file                           |surface_flowdatabladeVALIDATION_Blade_24.csv|
|                                   |                     (21.2797 MB/s)|
+-----------------------------------------------------------------------+
+--------------------------------------+
|  Inner_Iter|   Time(sec)|    rms[Rho]|
+--------------------------------------+
|        1210|  1.3832e-01|   -4.619521|
|        1220|  1.3784e-01|   -4.658592|
|        1230|  1.3733e-01|   -4.658958|
|        1240|  1.3686e-01|   -4.650444|
|        1250|  1.3645e-01|   -4.659793|
+-----------------------------------------------------------------------+
|        File Writing Summary       |              Filename             |
+-----------------------------------------------------------------------+
|SU2 binary restart                 |restart_flow_databladeVALIDATION_Blade_24.dat|
|                                   |                     (14186.8 MB/s)|
|Paraview                           |volume_flow_databladeVALIDATION_Blade_24.vtu|
|                                   |                     (1043.76 MB/s)|
|Paraview surface                   |surface_flowdatabladeVALIDATION_Blade_24.vtu|
|                                   |                     (90.8353 MB/s)|
|SU2 ASCII restart                  |restart_flow_databladeVALIDATION_Blade_24.csv|
|                                   |                     (21.0189 MB/s)|
|CSV file                           |surface_flowdatabladeVALIDATION_Blade_24.csv|
|                                   |                     (20.1157 MB/s)|
+-----------------------------------------------------------------------+
+--------------------------------------+
|  Inner_Iter|   Time(sec)|    rms[Rho]|
+--------------------------------------+
|        1260|  1.3805e-01|   -4.671253|
|        1270|  1.3770e-01|   -4.631451|
|        1280|  1.3735e-01|   -4.650060|
|        1290|  1.3702e-01|   -4.673958|
|        1300|  1.3654e-01|   -4.719564|
+-----------------------------------------------------------------------+
|        File Writing Summary       |              Filename             |
+-----------------------------------------------------------------------+
|SU2 binary restart                 |restart_flow_databladeVALIDATION_Blade_24.dat|
|                                   |                     (11751.9 MB/s)|
|Paraview                           |volume_flow_databladeVALIDATION_Blade_24.vtu|
|                                   |                     (856.887 MB/s)|
|Paraview surface                   |surface_flowdatabladeVALIDATION_Blade_24.vtu|
|                                   |                     (84.7402 MB/s)|
|SU2 ASCII restart                  |restart_flow_databladeVALIDATION_Blade_24.csv|
|                                   |                      (21.177 MB/s)|
|CSV file                           |surface_flowdatabladeVALIDATION_Blade_24.csv|
|                                   |                     (19.6948 MB/s)|
+-----------------------------------------------------------------------+
+--------------------------------------+
|  Inner_Iter|   Time(sec)|    rms[Rho]|
+--------------------------------------+
|        1310|  1.3813e-01|   -4.721463|
|        1320|  1.3777e-01|   -4.692701|
|        1330|  1.3743e-01|   -4.729241|
|        1340|  1.3711e-01|   -4.756361|
|        1350|  1.3680e-01|   -4.775206|
+-----------------------------------------------------------------------+
|        File Writing Summary       |              Filename             |
+-----------------------------------------------------------------------+
|SU2 binary restart                 |restart_flow_databladeVALIDATION_Blade_24.dat|
|                                   |                     (13251.5 MB/s)|
|Paraview                           |volume_flow_databladeVALIDATION_Blade_24.vtu|
|                                   |                     (1063.22 MB/s)|
|Paraview surface                   |surface_flowdatabladeVALIDATION_Blade_24.vtu|
|                                   |                     (92.0421 MB/s)|
|SU2 ASCII restart                  |restart_flow_databladeVALIDATION_Blade_24.csv|
|                                   |                     (21.4695 MB/s)|
|CSV file                           |surface_flowdatabladeVALIDATION_Blade_24.csv|
|                                   |                     (20.4935 MB/s)|
+-----------------------------------------------------------------------+
+--------------------------------------+
|  Inner_Iter|   Time(sec)|    rms[Rho]|
+--------------------------------------+
|        1360|  1.3847e-01|   -4.802973|
|        1370|  1.3806e-01|   -4.854288|
|        1380|  1.3762e-01|   -4.859571|
|        1390|  1.3722e-01|   -4.828424|
|        1400|  1.3679e-01|   -4.871623|
+-----------------------------------------------------------------------+
|        File Writing Summary       |              Filename             |
+-----------------------------------------------------------------------+
|SU2 binary restart                 |restart_flow_databladeVALIDATION_Blade_24.dat|
|                                   |                     (6223.58 MB/s)|
|Paraview                           |volume_flow_databladeVALIDATION_Blade_24.vtu|
|                                   |                     (913.593 MB/s)|
|Paraview surface                   |surface_flowdatabladeVALIDATION_Blade_24.vtu|
|                                   |                     (43.6434 MB/s)|
|SU2 ASCII restart                  |restart_flow_databladeVALIDATION_Blade_24.csv|
|                                   |                     (21.0167 MB/s)|
|CSV file                           |surface_flowdatabladeVALIDATION_Blade_24.csv|
|                                   |                     (21.4957 MB/s)|
+-----------------------------------------------------------------------+
+--------------------------------------+
|  Inner_Iter|   Time(sec)|    rms[Rho]|
+--------------------------------------+
|        1410|  1.3846e-01|   -4.839924|
|        1420|  1.3806e-01|   -4.873566|
|        1430|  1.3768e-01|   -4.853243|
|        1440|  1.3726e-01|   -4.876134|
|        1450|  1.3681e-01|   -4.890863|
+-----------------------------------------------------------------------+
|        File Writing Summary       |              Filename             |
+-----------------------------------------------------------------------+
|SU2 binary restart                 |restart_flow_databladeVALIDATION_Blade_24.dat|
|                                   |                     (9374.47 MB/s)|
|Paraview                           |volume_flow_databladeVALIDATION_Blade_24.vtu|
|                                   |                     (886.255 MB/s)|
|Paraview surface                   |surface_flowdatabladeVALIDATION_Blade_24.vtu|
|                                   |                      (83.093 MB/s)|
|SU2 ASCII restart                  |restart_flow_databladeVALIDATION_Blade_24.csv|
|                                   |                     (20.5867 MB/s)|
|CSV file                           |surface_flowdatabladeVALIDATION_Blade_24.csv|
|                                   |                     (18.0479 MB/s)|
+-----------------------------------------------------------------------+
+--------------------------------------+
|  Inner_Iter|   Time(sec)|    rms[Rho]|
+--------------------------------------+
|        1460|  1.3842e-01|   -4.874803|
|        1470|  1.3815e-01|   -4.908236|
|        1480|  1.3771e-01|   -4.932312|
|        1490|  1.3733e-01|   -4.944391|
|        1500|  1.3708e-01|   -4.947092|
+-----------------------------------------------------------------------+
|        File Writing Summary       |              Filename             |
+-----------------------------------------------------------------------+
|SU2 binary restart                 |restart_flow_databladeVALIDATION_Blade_24.dat|
|                                   |                     (13299.7 MB/s)|
|Paraview                           |volume_flow_databladeVALIDATION_Blade_24.vtu|
|                                   |                     (955.353 MB/s)|
|Paraview surface                   |surface_flowdatabladeVALIDATION_Blade_24.vtu|
|                                   |                      (104.28 MB/s)|
|SU2 ASCII restart                  |restart_flow_databladeVALIDATION_Blade_24.csv|
|                                   |                     (20.1564 MB/s)|
|CSV file                           |surface_flowdatabladeVALIDATION_Blade_24.csv|
|                                   |                     (19.2616 MB/s)|
+-----------------------------------------------------------------------+
+--------------------------------------+
|  Inner_Iter|   Time(sec)|    rms[Rho]|
+--------------------------------------+
|        1510|  1.3857e-01|   -4.969443|
|        1520|  1.3822e-01|   -4.985333|
|        1530|  1.3797e-01|   -4.958236|
|        1540|  1.3771e-01|   -4.973836|
|        1550|  1.3767e-01|   -4.989298|
+-----------------------------------------------------------------------+
|        File Writing Summary       |              Filename             |
+-----------------------------------------------------------------------+
|SU2 binary restart                 |restart_flow_databladeVALIDATION_Blade_24.dat|
|                                   |                     (4311.18 MB/s)|
|Paraview                           |volume_flow_databladeVALIDATION_Blade_24.vtu|
|                                   |                     (765.432 MB/s)|
|Paraview surface                   |surface_flowdatabladeVALIDATION_Blade_24.vtu|
|                                   |                     (61.0406 MB/s)|
|SU2 ASCII restart                  |restart_flow_databladeVALIDATION_Blade_24.csv|
|                                   |                     (19.8069 MB/s)|
|CSV file                           |surface_flowdatabladeVALIDATION_Blade_24.csv|
|                                   |                     (17.0701 MB/s)|
+-----------------------------------------------------------------------+
+--------------------------------------+
|  Inner_Iter|   Time(sec)|    rms[Rho]|
+--------------------------------------+
|        1560|  1.3940e-01|   -5.001759|
|        1570|  1.3926e-01|   -5.016053|
|        1580|  1.3925e-01|   -5.028109|
|        1590|  1.3954e-01|   -5.033971|
|        1600|  1.3981e-01|   -5.038207|
+-----------------------------------------------------------------------+
|        File Writing Summary       |              Filename             |
+-----------------------------------------------------------------------+
|SU2 binary restart                 |restart_flow_databladeVALIDATION_Blade_24.dat|
|                                   |                     (12756.6 MB/s)|
|Paraview                           |volume_flow_databladeVALIDATION_Blade_24.vtu|
|                                   |                     (801.983 MB/s)|
|Paraview surface                   |surface_flowdatabladeVALIDATION_Blade_24.vtu|
|                                   |                     (51.9918 MB/s)|
|SU2 ASCII restart                  |restart_flow_databladeVALIDATION_Blade_24.csv|
|                                   |                     (17.1733 MB/s)|
|CSV file                           |surface_flowdatabladeVALIDATION_Blade_24.csv|
|                                   |                     (19.0126 MB/s)|
+-----------------------------------------------------------------------+
+--------------------------------------+
|  Inner_Iter|   Time(sec)|    rms[Rho]|
+--------------------------------------+
|        1610|  1.4220e-01|   -5.044882|
|        1620|  1.4192e-01|   -5.075608|
|        1630|  1.4204e-01|   -5.061492|
|        1640|  1.4189e-01|   -5.078982|
|        1650|  1.4184e-01|   -5.070416|
+-----------------------------------------------------------------------+
|        File Writing Summary       |              Filename             |
+-----------------------------------------------------------------------+
|SU2 binary restart                 |restart_flow_databladeVALIDATION_Blade_24.dat|
|                                   |                     (5929.56 MB/s)|
|Paraview                           |volume_flow_databladeVALIDATION_Blade_24.vtu|
|                                   |                     (971.069 MB/s)|
|Paraview surface                   |surface_flowdatabladeVALIDATION_Blade_24.vtu|
|                                   |                     (33.3646 MB/s)|
|SU2 ASCII restart                  |restart_flow_databladeVALIDATION_Blade_24.csv|
|                                   |                     (20.8292 MB/s)|
|CSV file                           |surface_flowdatabladeVALIDATION_Blade_24.csv|
|                                   |                     (19.0804 MB/s)|
+-----------------------------------------------------------------------+
+--------------------------------------+
|  Inner_Iter|   Time(sec)|    rms[Rho]|
+--------------------------------------+
|        1660|  1.4360e-01|   -5.087935|
|        1670|  1.4360e-01|   -5.109655|
|        1680|  1.4330e-01|   -5.136647|
|        1690|  1.4322e-01|   -5.158987|
|        1700|  1.4334e-01|   -5.167475|
+-----------------------------------------------------------------------+
|        File Writing Summary       |              Filename             |
+-----------------------------------------------------------------------+
|SU2 binary restart                 |restart_flow_databladeVALIDATION_Blade_24.dat|
|                                   |                     (3692.04 MB/s)|
|Paraview                           |volume_flow_databladeVALIDATION_Blade_24.vtu|
|                                   |                     (612.502 MB/s)|
|Paraview surface                   |surface_flowdatabladeVALIDATION_Blade_24.vtu|
|                                   |                     (22.6482 MB/s)|
|SU2 ASCII restart                  |restart_flow_databladeVALIDATION_Blade_24.csv|
|                                   |                     (19.1999 MB/s)|
|CSV file                           |surface_flowdatabladeVALIDATION_Blade_24.csv|
|                                   |                     (18.3235 MB/s)|
+-----------------------------------------------------------------------+
+--------------------------------------+
|  Inner_Iter|   Time(sec)|    rms[Rho]|
+--------------------------------------+
|        1710|  1.4480e-01|   -5.168353|
|        1720|  1.4454e-01|   -5.198518|
|        1730|  1.4425e-01|   -5.217534|
|        1740|  1.4425e-01|   -5.177690|
|        1750|  1.4406e-01|   -5.225348|
+-----------------------------------------------------------------------+
|        File Writing Summary       |              Filename             |
+-----------------------------------------------------------------------+
|SU2 binary restart                 |restart_flow_databladeVALIDATION_Blade_24.dat|
|                                   |                     (13081.4 MB/s)|
|Paraview                           |volume_flow_databladeVALIDATION_Blade_24.vtu|
|                                   |                     (679.661 MB/s)|
|Paraview surface                   |surface_flowdatabladeVALIDATION_Blade_24.vtu|
|                                   |                     (34.1298 MB/s)|
|SU2 ASCII restart                  |restart_flow_databladeVALIDATION_Blade_24.csv|
|                                   |                     (19.2141 MB/s)|
|CSV file                           |surface_flowdatabladeVALIDATION_Blade_24.csv|
|                                   |                     (16.0502 MB/s)|
+-----------------------------------------------------------------------+
+--------------------------------------+
|  Inner_Iter|   Time(sec)|    rms[Rho]|
+--------------------------------------+
|        1760|  1.4546e-01|   -5.227138|
|        1770|  1.4516e-01|   -5.203193|
|        1780|  1.4508e-01|   -5.178525|
|        1790|  1.4487e-01|   -5.218570|
|        1800|  1.4502e-01|   -5.206848|
+-----------------------------------------------------------------------+
|        File Writing Summary       |              Filename             |
+-----------------------------------------------------------------------+
|SU2 binary restart                 |restart_flow_databladeVALIDATION_Blade_24.dat|
|                                   |                     (3224.61 MB/s)|
|Paraview                           |volume_flow_databladeVALIDATION_Blade_24.vtu|
|                                   |                     (507.812 MB/s)|
|Paraview surface                   |surface_flowdatabladeVALIDATION_Blade_24.vtu|
|                                   |                     (46.1373 MB/s)|
|SU2 ASCII restart                  |restart_flow_databladeVALIDATION_Blade_24.csv|
|                                   |                     (18.2784 MB/s)|
|CSV file                           |surface_flowdatabladeVALIDATION_Blade_24.csv|
|                                   |                     (16.9833 MB/s)|
+-----------------------------------------------------------------------+
+--------------------------------------+
|  Inner_Iter|   Time(sec)|    rms[Rho]|
+--------------------------------------+
|        1810|  1.4713e-01|   -5.187328|
|        1820|  1.4691e-01|   -5.250316|
|        1830|  1.4697e-01|   -5.269293|
|        1840|  1.4696e-01|   -5.273959|
|        1850|  1.4680e-01|   -5.253828|
+-----------------------------------------------------------------------+
|        File Writing Summary       |              Filename             |
+-----------------------------------------------------------------------+
|SU2 binary restart                 |restart_flow_databladeVALIDATION_Blade_24.dat|
|                                   |                     (7570.81 MB/s)|
|Paraview                           |volume_flow_databladeVALIDATION_Blade_24.vtu|
|                                   |                     (1014.89 MB/s)|
|Paraview surface                   |surface_flowdatabladeVALIDATION_Blade_24.vtu|
|                                   |                      (88.113 MB/s)|
|SU2 ASCII restart                  |restart_flow_databladeVALIDATION_Blade_24.csv|
|                                   |                     (17.8529 MB/s)|
|CSV file                           |surface_flowdatabladeVALIDATION_Blade_24.csv|
|                                   |                     (17.5577 MB/s)|
+-----------------------------------------------------------------------+
+--------------------------------------+
|  Inner_Iter|   Time(sec)|    rms[Rho]|
+--------------------------------------+
|        1860|  1.4837e-01|   -5.305749|
|        1870|  1.4808e-01|   -5.309628|
|        1880|  1.4786e-01|   -5.280179|
|        1890|  1.4759e-01|   -5.276627|
|        1900|  1.4726e-01|   -5.304922|
+-----------------------------------------------------------------------+
|        File Writing Summary       |              Filename             |
+-----------------------------------------------------------------------+
|SU2 binary restart                 |restart_flow_databladeVALIDATION_Blade_24.dat|
|                                   |                     (10522.7 MB/s)|
|Paraview                           |volume_flow_databladeVALIDATION_Blade_24.vtu|
|                                   |                     (906.738 MB/s)|
|Paraview surface                   |surface_flowdatabladeVALIDATION_Blade_24.vtu|
|                                   |                     (65.0371 MB/s)|
|SU2 ASCII restart                  |restart_flow_databladeVALIDATION_Blade_24.csv|
|                                   |                     (19.2341 MB/s)|
|CSV file                           |surface_flowdatabladeVALIDATION_Blade_24.csv|
|                                   |                     (16.9623 MB/s)|
+-----------------------------------------------------------------------+
+--------------------------------------+
|  Inner_Iter|   Time(sec)|    rms[Rho]|
+--------------------------------------+
|        1910|  1.4854e-01|   -5.275361|
|        1920|  1.4843e-01|   -5.238909|
|        1930|  1.4833e-01|   -5.301631|
|        1940|  1.4819e-01|   -5.311084|
|        1950|  1.4812e-01|   -5.228764|
+-----------------------------------------------------------------------+
|        File Writing Summary       |              Filename             |
+-----------------------------------------------------------------------+
|SU2 binary restart                 |restart_flow_databladeVALIDATION_Blade_24.dat|
|                                   |                     (10542.3 MB/s)|
|Paraview                           |volume_flow_databladeVALIDATION_Blade_24.vtu|
|                                   |                     (477.834 MB/s)|
|Paraview surface                   |surface_flowdatabladeVALIDATION_Blade_24.vtu|
|                                   |                     (50.5665 MB/s)|
|SU2 ASCII restart                  |restart_flow_databladeVALIDATION_Blade_24.csv|
|                                   |                     (18.3885 MB/s)|
|CSV file                           |surface_flowdatabladeVALIDATION_Blade_24.csv|
|                                   |                     (15.0789 MB/s)|
+-----------------------------------------------------------------------+
+--------------------------------------+
|  Inner_Iter|   Time(sec)|    rms[Rho]|
+--------------------------------------+
|        1960|  1.4976e-01|   -5.339860|
|        1970|  1.4959e-01|   -5.380641|
|        1980|  1.4940e-01|   -5.376087|
|        1990|  1.4931e-01|   -5.321033|
|        2000|  1.4912e-01|   -5.415056|
+-----------------------------------------------------------------------+
|        File Writing Summary       |              Filename             |
+-----------------------------------------------------------------------+
|SU2 binary restart                 |restart_flow_databladeVALIDATION_Blade_24.dat|
|                                   |                     (9322.46 MB/s)|
|Paraview                           |volume_flow_databladeVALIDATION_Blade_24.vtu|
|                                   |                     (478.224 MB/s)|
|Paraview surface                   |surface_flowdatabladeVALIDATION_Blade_24.vtu|
|                                   |                      (13.738 MB/s)|
|SU2 ASCII restart                  |restart_flow_databladeVALIDATION_Blade_24.csv|
|                                   |                     (17.2567 MB/s)|
|CSV file                           |surface_flowdatabladeVALIDATION_Blade_24.csv|
|                                   |                     (20.3614 MB/s)|
+-----------------------------------------------------------------------+
+--------------------------------------+
|  Inner_Iter|   Time(sec)|    rms[Rho]|
+--------------------------------------+
|        2010|  1.5047e-01|   -5.415314|
|        2020|  1.5044e-01|   -5.356942|
|        2030|  1.5046e-01|   -5.340745|
|        2040|  1.5044e-01|   -5.309881|
|        2050|  1.5033e-01|   -5.337667|
+-----------------------------------------------------------------------+
|        File Writing Summary       |              Filename             |
+-----------------------------------------------------------------------+
|SU2 binary restart                 |restart_flow_databladeVALIDATION_Blade_24.dat|
|                                   |                     (4766.05 MB/s)|
|Paraview                           |volume_flow_databladeVALIDATION_Blade_24.vtu|
|                                   |                     (724.927 MB/s)|
|Paraview surface                   |surface_flowdatabladeVALIDATION_Blade_24.vtu|
|                                   |                     (34.1013 MB/s)|
|SU2 ASCII restart                  |restart_flow_databladeVALIDATION_Blade_24.csv|
|                                   |                     (19.3667 MB/s)|
|CSV file                           |surface_flowdatabladeVALIDATION_Blade_24.csv|
|                                   |                     (16.9295 MB/s)|
+-----------------------------------------------------------------------+
+--------------------------------------+
|  Inner_Iter|   Time(sec)|    rms[Rho]|
+--------------------------------------+
|        2060|  1.5173e-01|   -5.377650|
|        2070|  1.5165e-01|   -5.420355|
|        2080|  1.5162e-01|   -5.451900|
|        2090|  1.5160e-01|   -5.500867|
|        2100|  1.5139e-01|   -5.510357|
+-----------------------------------------------------------------------+
|        File Writing Summary       |              Filename             |
+-----------------------------------------------------------------------+
|SU2 binary restart                 |restart_flow_databladeVALIDATION_Blade_24.dat|
|                                   |                     (13111.7 MB/s)|
|Paraview                           |volume_flow_databladeVALIDATION_Blade_24.vtu|
|                                   |                     (972.918 MB/s)|
|Paraview surface                   |surface_flowdatabladeVALIDATION_Blade_24.vtu|
|                                   |                     (123.097 MB/s)|
|SU2 ASCII restart                  |restart_flow_databladeVALIDATION_Blade_24.csv|
|                                   |                     (19.6085 MB/s)|
|CSV file                           |surface_flowdatabladeVALIDATION_Blade_24.csv|
|                                   |                     (16.5008 MB/s)|
+-----------------------------------------------------------------------+
+--------------------------------------+
|  Inner_Iter|   Time(sec)|    rms[Rho]|
+--------------------------------------+
|        2110|  1.5255e-01|   -5.563571|
|        2120|  1.5243e-01|   -5.498632|
|        2130|  1.5218e-01|   -5.544759|
|        2140|  1.5202e-01|   -5.594596|
|        2150|  1.5205e-01|   -5.590620|
+-----------------------------------------------------------------------+
|        File Writing Summary       |              Filename             |
+-----------------------------------------------------------------------+
|SU2 binary restart                 |restart_flow_databladeVALIDATION_Blade_24.dat|
|                                   |                     (10743.3 MB/s)|
|Paraview                           |volume_flow_databladeVALIDATION_Blade_24.vtu|
|                                   |                     (911.598 MB/s)|
|Paraview surface                   |surface_flowdatabladeVALIDATION_Blade_24.vtu|
|                                   |                     (67.8867 MB/s)|
|SU2 ASCII restart                  |restart_flow_databladeVALIDATION_Blade_24.csv|
|                                   |                     (19.3499 MB/s)|
|CSV file                           |surface_flowdatabladeVALIDATION_Blade_24.csv|
|                                   |                     (19.3374 MB/s)|
+-----------------------------------------------------------------------+
+--------------------------------------+
|  Inner_Iter|   Time(sec)|    rms[Rho]|
+--------------------------------------+
|        2160|  1.5316e-01|   -5.574158|
|        2170|  1.5285e-01|   -5.622427|
|        2180|  1.5252e-01|   -5.648518|
|        2190|  1.5245e-01|   -5.608782|
|        2200|  1.5214e-01|   -5.667982|
+-----------------------------------------------------------------------+
|        File Writing Summary       |              Filename             |
+-----------------------------------------------------------------------+
|SU2 binary restart                 |restart_flow_databladeVALIDATION_Blade_24.dat|
|                                   |                     (12256.2 MB/s)|
|Paraview                           |volume_flow_databladeVALIDATION_Blade_24.vtu|
|                                   |                     (956.211 MB/s)|
|Paraview surface                   |surface_flowdatabladeVALIDATION_Blade_24.vtu|
|                                   |                     (73.9845 MB/s)|
|SU2 ASCII restart                  |restart_flow_databladeVALIDATION_Blade_24.csv|
|                                   |                      (19.483 MB/s)|
|CSV file                           |surface_flowdatabladeVALIDATION_Blade_24.csv|
|                                   |                     (17.3854 MB/s)|
+-----------------------------------------------------------------------+
+--------------------------------------+
|  Inner_Iter|   Time(sec)|    rms[Rho]|
+--------------------------------------+
|        2210|  1.5324e-01|   -5.649165|
|        2220|  1.5295e-01|   -5.659372|
|        2230|  1.5265e-01|   -5.699568|
|        2240|  1.5235e-01|   -5.700498|
|        2250|  1.5215e-01|   -5.692539|
+-----------------------------------------------------------------------+
|        File Writing Summary       |              Filename             |
+-----------------------------------------------------------------------+
|SU2 binary restart                 |restart_flow_databladeVALIDATION_Blade_24.dat|
|                                   |                     (9777.95 MB/s)|
|Paraview                           |volume_flow_databladeVALIDATION_Blade_24.vtu|
|                                   |                     (651.377 MB/s)|
|Paraview surface                   |surface_flowdatabladeVALIDATION_Blade_24.vtu|
|                                   |                     (21.2979 MB/s)|
|SU2 ASCII restart                  |restart_flow_databladeVALIDATION_Blade_24.csv|
|                                   |                     (20.0677 MB/s)|
|CSV file                           |surface_flowdatabladeVALIDATION_Blade_24.csv|
|                                   |                     (13.9679 MB/s)|
+-----------------------------------------------------------------------+
+--------------------------------------+
|  Inner_Iter|   Time(sec)|    rms[Rho]|
+--------------------------------------+
|        2260|  1.5317e-01|   -5.740423|
|        2270|  1.5299e-01|   -5.708173|
|        2280|  1.5282e-01|   -5.721195|
|        2290|  1.5264e-01|   -5.728449|
|        2300|  1.5249e-01|   -5.737773|
+-----------------------------------------------------------------------+
|        File Writing Summary       |              Filename             |
+-----------------------------------------------------------------------+
|SU2 binary restart                 |restart_flow_databladeVALIDATION_Blade_24.dat|
|                                   |                     (10255.9 MB/s)|
|Paraview                           |volume_flow_databladeVALIDATION_Blade_24.vtu|
|                                   |                     (894.171 MB/s)|
|Paraview surface                   |surface_flowdatabladeVALIDATION_Blade_24.vtu|
|                                   |                     (67.1025 MB/s)|
|SU2 ASCII restart                  |restart_flow_databladeVALIDATION_Blade_24.csv|
|                                   |                     (19.7705 MB/s)|
|CSV file                           |surface_flowdatabladeVALIDATION_Blade_24.csv|
|                                   |                     (21.0395 MB/s)|
+-----------------------------------------------------------------------+
+--------------------------------------+
|  Inner_Iter|   Time(sec)|    rms[Rho]|
+--------------------------------------+
|        2310|  1.5345e-01|   -5.795868|
|        2320|  1.5330e-01|   -5.795775|
|        2330|  1.5305e-01|   -5.762344|
|        2340|  1.5279e-01|   -5.805904|
|        2350|  1.5247e-01|   -5.830548|
+-----------------------------------------------------------------------+
|        File Writing Summary       |              Filename             |
+-----------------------------------------------------------------------+
|SU2 binary restart                 |restart_flow_databladeVALIDATION_Blade_24.dat|
|                                   |                       (12639 MB/s)|
|Paraview                           |volume_flow_databladeVALIDATION_Blade_24.vtu|
[...]
+-----------------------------------------------------------------------+
|        File Writing Summary       |              Filename             |
+-----------------------------------------------------------------------+
|SU2 binary restart                 |restart_flow_databladeVALIDATION_Blade_24.dat|
|                                   |                     (16037.4 MB/s)|
|Paraview                           |volume_flow_databladeVALIDATION_Blade_24.vtu|
|                                   |                     (1188.89 MB/s)|
|Paraview surface                   |surface_flowdatabladeVALIDATION_Blade_24.vtu|
|                                   |                     (99.5606 MB/s)|
|SU2 ASCII restart                  |restart_flow_databladeVALIDATION_Blade_24.csv|
|                                   |                     (21.1389 MB/s)|
|CSV file                           |surface_flowdatabladeVALIDATION_Blade_24.csv|
|                                   |                     (21.1968 MB/s)|
+-----------------------------------------------------------------------+
+--------------------------------------+
|  Inner_Iter|   Time(sec)|    rms[Rho]|
+--------------------------------------+
|        3260|  1.5626e-01|   -6.508296|
|        3270|  1.5606e-01|   -6.456790|
|        3280|  1.5587e-01|   -6.477581|
|        3290|  1.5568e-01|   -6.487041|
|        3300|  1.5549e-01|   -6.495646|
+-----------------------------------------------------------------------+
|        File Writing Summary       |              Filename             |
+-----------------------------------------------------------------------+
|SU2 binary restart                 |restart_flow_databladeVALIDATION_Blade_24.dat|
|                                   |                     (13126.5 MB/s)|
|Paraview                           |volume_flow_databladeVALIDATION_Blade_24.vtu|
|                                   |                     (1131.26 MB/s)|
|Paraview surface                   |surface_flowdatabladeVALIDATION_Blade_24.vtu|
|                                   |                     (89.0569 MB/s)|
|SU2 ASCII restart                  |restart_flow_databladeVALIDATION_Blade_24.csv|
|                                   |                     (20.7414 MB/s)|
|CSV file                           |surface_flowdatabladeVALIDATION_Blade_24.csv|
|                                   |                      (20.434 MB/s)|
+-----------------------------------------------------------------------+
+--------------------------------------+
|  Inner_Iter|   Time(sec)|    rms[Rho]|
+--------------------------------------+
|        3310|  1.5615e-01|   -6.508813|
|        3320|  1.5597e-01|   -6.532084|
|        3330|  1.5579e-01|   -6.594729|
|        3340|  1.5558e-01|   -6.572841|
|        3350|  1.5535e-01|   -6.599466|
+-----------------------------------------------------------------------+
|        File Writing Summary       |              Filename             |
+-----------------------------------------------------------------------+
|SU2 binary restart                 |restart_flow_databladeVALIDATION_Blade_24.dat|
|                                   |                     (13049.4 MB/s)|
|Paraview                           |volume_flow_databladeVALIDATION_Blade_24.vtu|
|                                   |                     (1040.66 MB/s)|
|Paraview surface                   |surface_flowdatabladeVALIDATION_Blade_24.vtu|
|                                   |                     (80.6335 MB/s)|
|SU2 ASCII restart                  |restart_flow_databladeVALIDATION_Blade_24.csv|
|                                   |                     (20.7087 MB/s)|
|CSV file                           |surface_flowdatabladeVALIDATION_Blade_24.csv|
|                                   |                     (19.5998 MB/s)|
+-----------------------------------------------------------------------+
+--------------------------------------+
|  Inner_Iter|   Time(sec)|    rms[Rho]|
+--------------------------------------+
|        3360|  1.5600e-01|   -6.573253|
|        3370|  1.5587e-01|   -6.574016|
|        3380|  1.5570e-01|   -6.581653|
|        3390|  1.5554e-01|   -6.600262|
|        3400|  1.5538e-01|   -6.623158|
+-----------------------------------------------------------------------+
|        File Writing Summary       |              Filename             |
+-----------------------------------------------------------------------+
|SU2 binary restart                 |restart_flow_databladeVALIDATION_Blade_24.dat|
|                                   |                     (13360.6 MB/s)|
|Paraview                           |volume_flow_databladeVALIDATION_Blade_24.vtu|
|                                   |                     (1105.55 MB/s)|
|Paraview surface                   |surface_flowdatabladeVALIDATION_Blade_24.vtu|
|                                   |                     (119.025 MB/s)|
|SU2 ASCII restart                  |restart_flow_databladeVALIDATION_Blade_24.csv|
|                                   |                     (20.3856 MB/s)|
|CSV file                           |surface_flowdatabladeVALIDATION_Blade_24.csv|
|                                   |                     (19.5699 MB/s)|
+-----------------------------------------------------------------------+
+--------------------------------------+
|  Inner_Iter|   Time(sec)|    rms[Rho]|
+--------------------------------------+
|        3410|  1.5596e-01|   -6.675107|
|        3420|  1.5575e-01|   -6.659603|
|        3430|  1.5552e-01|   -6.687036|
|        3440|  1.5534e-01|   -6.669164|
|        3450|  1.5516e-01|   -6.674934|
+-----------------------------------------------------------------------+
|        File Writing Summary       |              Filename             |
+-----------------------------------------------------------------------+
|SU2 binary restart                 |restart_flow_databladeVALIDATION_Blade_24.dat|
|                                   |                     (13585.4 MB/s)|
|Paraview                           |volume_flow_databladeVALIDATION_Blade_24.vtu|
|                                   |                     (1103.18 MB/s)|
|Paraview surface                   |surface_flowdatabladeVALIDATION_Blade_24.vtu|
|                                   |                     (97.2121 MB/s)|
|SU2 ASCII restart                  |restart_flow_databladeVALIDATION_Blade_24.csv|
|                                   |                      (20.814 MB/s)|
|CSV file                           |surface_flowdatabladeVALIDATION_Blade_24.csv|
|                                   |                     (19.5835 MB/s)|
+-----------------------------------------------------------------------+
+--------------------------------------+
|  Inner_Iter|   Time(sec)|    rms[Rho]|
+--------------------------------------+
|        3460|  1.5576e-01|   -6.677119|
|        3470|  1.5555e-01|   -6.714666|
|        3480|  1.5533e-01|   -6.697812|
|        3490|  1.5514e-01|   -6.725873|
|        3500|  1.5496e-01|   -6.741127|
+-----------------------------------------------------------------------+
|        File Writing Summary       |              Filename             |
+-----------------------------------------------------------------------+
|SU2 binary restart                 |restart_flow_databladeVALIDATION_Blade_24.dat|
|                                   |                     (8709.52 MB/s)|
|Paraview                           |volume_flow_databladeVALIDATION_Blade_24.vtu|
|                                   |                     (977.429 MB/s)|
|Paraview surface                   |surface_flowdatabladeVALIDATION_Blade_24.vtu|
|                                   |                     (88.5369 MB/s)|
|SU2 ASCII restart                  |restart_flow_databladeVALIDATION_Blade_24.csv|
|                                   |                     (19.9865 MB/s)|
|CSV file                           |surface_flowdatabladeVALIDATION_Blade_24.csv|
|                                   |                     (20.9386 MB/s)|
+-----------------------------------------------------------------------+
+--------------------------------------+
|  Inner_Iter|   Time(sec)|    rms[Rho]|
+--------------------------------------+
|        3510|  1.5565e-01|   -6.704869|
|        3520|  1.5552e-01|   -6.723994|
|        3530|  1.5535e-01|   -6.739522|
|        3540|  1.5518e-01|   -6.749268|
|        3550|  1.5501e-01|   -6.755006|
+-----------------------------------------------------------------------+
|        File Writing Summary       |              Filename             |
+-----------------------------------------------------------------------+
|SU2 binary restart                 |restart_flow_databladeVALIDATION_Blade_24.dat|
|                                   |                     (3905.41 MB/s)|
|Paraview                           |volume_flow_databladeVALIDATION_Blade_24.vtu|
|                                   |                     (1122.12 MB/s)|
|Paraview surface                   |surface_flowdatabladeVALIDATION_Blade_24.vtu|
|                                   |                     (107.164 MB/s)|
|SU2 ASCII restart                  |restart_flow_databladeVALIDATION_Blade_24.csv|
|                                   |                     (20.4366 MB/s)|
|CSV file                           |surface_flowdatabladeVALIDATION_Blade_24.csv|
|                                   |                     (21.1592 MB/s)|
+-----------------------------------------------------------------------+
+--------------------------------------+
|  Inner_Iter|   Time(sec)|    rms[Rho]|
+--------------------------------------+
|        3560|  1.5562e-01|   -6.756228|
|        3570|  1.5538e-01|   -6.800557|
|        3580|  1.5516e-01|   -6.794160|
|        3590|  1.5501e-01|   -6.780287|
|        3600|  1.5479e-01|   -6.831074|
+-----------------------------------------------------------------------+
|        File Writing Summary       |              Filename             |
+-----------------------------------------------------------------------+
|SU2 binary restart                 |restart_flow_databladeVALIDATION_Blade_24.dat|
|                                   |                     (12855.1 MB/s)|
|Paraview                           |volume_flow_databladeVALIDATION_Blade_24.vtu|
|                                   |                     (1041.96 MB/s)|
|Paraview surface                   |surface_flowdatabladeVALIDATION_Blade_24.vtu|
|                                   |                     (101.059 MB/s)|
|SU2 ASCII restart                  |restart_flow_databladeVALIDATION_Blade_24.csv|
|                                   |                     (20.6684 MB/s)|
|CSV file                           |surface_flowdatabladeVALIDATION_Blade_24.csv|
|                                   |                     (21.9082 MB/s)|
+-----------------------------------------------------------------------+
+--------------------------------------+
|  Inner_Iter|   Time(sec)|    rms[Rho]|
+--------------------------------------+
|        3610|  1.5535e-01|   -6.842982|
|        3620|  1.5517e-01|   -6.831209|
|        3630|  1.5499e-01|   -6.842009|
|        3640|  1.5480e-01|   -6.882970|
|        3650|  1.5463e-01|   -6.882355|
+-----------------------------------------------------------------------+
|        File Writing Summary       |              Filename             |
+-----------------------------------------------------------------------+
|SU2 binary restart                 |restart_flow_databladeVALIDATION_Blade_24.dat|
|                                   |                     (9751.88 MB/s)|
|Paraview                           |volume_flow_databladeVALIDATION_Blade_24.vtu|
|                                   |                     (1048.76 MB/s)|
|Paraview surface                   |surface_flowdatabladeVALIDATION_Blade_24.vtu|
|                                   |                      (95.118 MB/s)|
|SU2 ASCII restart                  |restart_flow_databladeVALIDATION_Blade_24.csv|
|                                   |                      (20.483 MB/s)|
|CSV file                           |surface_flowdatabladeVALIDATION_Blade_24.csv|
|                                   |                     (19.2465 MB/s)|
+-----------------------------------------------------------------------+
+--------------------------------------+
|  Inner_Iter|   Time(sec)|    rms[Rho]|
+--------------------------------------+
|        3660|  1.5523e-01|   -6.862659|
|        3670|  1.5499e-01|   -6.899503|
|        3680|  1.5484e-01|   -6.858265|
|        3690|  1.5469e-01|   -6.857431|
|        3700|  1.5457e-01|   -6.870006|
+-----------------------------------------------------------------------+
|        File Writing Summary       |              Filename             |
+-----------------------------------------------------------------------+
|SU2 binary restart                 |restart_flow_databladeVALIDATION_Blade_24.dat|
|                                   |                     (13315.8 MB/s)|
|Paraview                           |volume_flow_databladeVALIDATION_Blade_24.vtu|
|                                   |                     (1096.76 MB/s)|
|Paraview surface                   |surface_flowdatabladeVALIDATION_Blade_24.vtu|
|                                   |                      (101.22 MB/s)|
|SU2 ASCII restart                  |restart_flow_databladeVALIDATION_Blade_24.csv|
|                                   |                     (20.2993 MB/s)|
|CSV file                           |surface_flowdatabladeVALIDATION_Blade_24.csv|
|                                   |                     (21.6925 MB/s)|
+-----------------------------------------------------------------------+
+--------------------------------------+
|  Inner_Iter|   Time(sec)|    rms[Rho]|
+--------------------------------------+
|        3710|  1.5519e-01|   -6.889968|
|        3720|  1.5506e-01|   -6.910313|
|        3730|  1.5490e-01|   -6.921663|
|        3740|  1.5479e-01|   -6.928985|
|        3750|  1.5458e-01|   -6.967436|
+-----------------------------------------------------------------------+
|        File Writing Summary       |              Filename             |
+-----------------------------------------------------------------------+
|SU2 binary restart                 |restart_flow_databladeVALIDATION_Blade_24.dat|
|                                   |                       (12334 MB/s)|
|Paraview                           |volume_flow_databladeVALIDATION_Blade_24.vtu|
|                                   |                     (1178.14 MB/s)|
|Paraview surface                   |surface_flowdatabladeVALIDATION_Blade_24.vtu|
|                                   |                     (99.4251 MB/s)|
|SU2 ASCII restart                  |restart_flow_databladeVALIDATION_Blade_24.csv|
|                                   |                      (20.018 MB/s)|
|CSV file                           |surface_flowdatabladeVALIDATION_Blade_24.csv|
|                                   |                     (19.7398 MB/s)|
+-----------------------------------------------------------------------+
+--------------------------------------+
|  Inner_Iter|   Time(sec)|    rms[Rho]|
+--------------------------------------+
|        3760|  1.5514e-01|   -6.966206|
|        3770|  1.5500e-01|   -6.949272|
|        3780|  1.5480e-01|   -6.986838|
|        3790|  1.5460e-01|   -6.991138|
|        3800|  1.5441e-01|   -6.981426|
+-----------------------------------------------------------------------+
|        File Writing Summary       |              Filename             |
+-----------------------------------------------------------------------+
|SU2 binary restart                 |restart_flow_databladeVALIDATION_Blade_24.dat|
|                                   |                     (709.658 MB/s)|
|Paraview                           |volume_flow_databladeVALIDATION_Blade_24.vtu|
|                                   |                     (723.908 MB/s)|
|Paraview surface                   |surface_flowdatabladeVALIDATION_Blade_24.vtu|
|                                   |                     (79.1926 MB/s)|
|SU2 ASCII restart                  |restart_flow_databladeVALIDATION_Blade_24.csv|
|                                   |                     (20.6536 MB/s)|
|CSV file                           |surface_flowdatabladeVALIDATION_Blade_24.csv|
|                                   |                     (21.7442 MB/s)|
+-----------------------------------------------------------------------+
+--------------------------------------+
|  Inner_Iter|   Time(sec)|    rms[Rho]|
+--------------------------------------+
|        3805|  1.5503e-01|   -7.001424|

----------------------------- Solver Exit -------------------------------
All convergence criteria satisfied.
+-----------------------------------------------------------------------+
|      Convergence Field     |     Value    |   Criterion  |  Converged |
+-----------------------------------------------------------------------+
|                    rms[Rho]|      -7.00142|          < -7|         Yes|
+-----------------------------------------------------------------------+
-------------------------------------------------------------------------
+-----------------------------------------------------------------------+
|        File Writing Summary       |              Filename             |
+-----------------------------------------------------------------------+
|SU2 binary restart                 |restart_flow_databladeVALIDATION_Blade_24.dat|
|                                   |                     (13883.8 MB/s)|
|Paraview                           |volume_flow_databladeVALIDATION_Blade_24.vtu|
|                                   |                     (1089.82 MB/s)|
|Paraview surface                   |surface_flowdatabladeVALIDATION_Blade_24.vtu|
|                                   |                     (102.791 MB/s)|
|SU2 ASCII restart                  |restart_flow_databladeVALIDATION_Blade_24.csv|
|                                   |                     (20.5696 MB/s)|
|CSV file                           |surface_flowdatabladeVALIDATION_Blade_24.csv|
|                                   |                     (18.3314 MB/s)|
+-----------------------------------------------------------------------+

--------------------------- Finalizing Solver ---------------------------
Deleted CNumerics container.
Deleted CIntegration container.
Deleted CSolver container.
Deleted CIteration container.
Deleted CInterface container.
Deleted CGeometry container.
Deleted CFreeFormDefBox class.
Deleted CSurfaceMovement class.
Deleted CVolumetricMovement class.
Deleted CConfig container.
Deleted nInst container.
Deleted COutput class.
-------------------------------------------------------------------------


-------------------------- Performance Summary --------------------------
Simulation totals:
   Wall-clock time (hrs):    0.164829 |            Core-hrs:     1.97795
                   Cores:          12 |          DOFs/point:           5
             Points/core:     5883.25 |   Ghost points/core:     163.667
 Ghost/Owned Point Ratio:   0.0278191 | 

Preprocessing phase:
       Preproc. Time (s):    0.534001 |   Preproc. Time (%):   0.0899923

Compute phase:
        Compute Time (s):     590.064 |    Compute Time (%):     99.4403
         Iteration count:        3806 |         Avg. s/iter:    0.155035
     Core-s/iter/Mpoints:     25.6387 |           Mpoints/s:    0.468042

Output phase:
         Output Time (s):     2.78712 |     Output Time (%):    0.469698
            Output count:           1 |       Avg. s/output:     2.78712
 Restart Aggr. BW (MB/s):      831818 |           MB/s/core:     69318.1
-------------------------------------------------------------------------


------------------------- Exit Success (SU2_CFD) ------------------------

