
-------------------------------------------------------------------------
|    ___ _   _ ___                                                      |
|   / __| | | |_  )   Release 8.0.1 "Harrier"                           |
|   \__ \ |_| |/ /                                                      |
|   |___/\___//___|   Suite (Computational Fluid Dynamics Code)         |
|                                                                       |
-------------------------------------------------------------------------
| SU2 Project Website: https://su2code.github.io                        |
|                                                                       |
| The SU2 Project is maintained by the SU2 Foundation                   |
| (http://su2foundation.org)                                            |
-------------------------------------------------------------------------
| Copyright 2012-2024, SU2 Contributors                                 |
|                                                                       |
| SU2 is free software; you can redistribute it and/or                  |
| modify it under the terms of the GNU Lesser General Public            |
| License as published by the Free Software Foundation; either          |
| version 2.1 of the License, or (at your option) any later version.    |
|                                                                       |
| SU2 is distributed in the hope that it will be useful,                |
| but WITHOUT ANY WARRANTY; without even the implied warranty of        |
| MERCHANTABILITY or FITNESS FOR A PARTICULAR PURPOSE. See the GNU      |
| Lesser General Public License for more details.                       |
|                                                                       |
| You should have received a copy of the GNU Lesser General Public      |
| License along with SU2. If not, see <http://www.gnu.org/licenses/>.   |
-------------------------------------------------------------------------

Parsing config file for zone 0

----------------- Physical Case Definition ( Zone 0 ) -------------------
Compressible RANS equations.
Turbulence model: Spalart-Allmaras-noft2-BCM
Hybrid RANS/LES: No Hybrid RANS/LES
Mach number: 0.5.
Angle of attack (AoA): -8 deg, and angle of sideslip (AoS): 0 deg.
Reynolds number: 600000. Reference length 1.00072.
No restart solution, use the values at infinity (freestream).
Dimensional simulation.
The reference area will be computed using y(2D) or z(3D) projection.
The semi-span will be computed using the max y(3D) value.
The reference length is 1.00072 m.
Reference origin for moment evaluation is (0, 0, 0).
Surface(s) where the force coefficients are evaluated: blade1.

Surface(s) plotted in the output file: blade1.
Surface(s) to be analyzed in detail: inlet, outlet, blade1.
Input mesh file name: cascade2D_databladeVALIDATION_Blade_17.su2

--------------- Space Numerical Integration ( Zone 0 ) ------------------
Jameson-Schmidt-Turkel scheme (2nd order in space) for the flow inviscid terms.
JST viscous coefficients (2nd & 4th): 0.5, 0.02.
The method includes a grid stretching correction (p = 0.3).
Scalar upwind solver for the turbulence model.
First order integration in space.
Average of gradients with correction (viscous flow terms).
Average of gradients with correction (viscous turbulence terms).
Gradient for upwind reconstruction: inverse-distance weighted Least-Squares.
Gradient for viscous and source terms: inverse-distance weighted Least-Squares.

--------------- Time Numerical Integration  ( Zone 0 ) ------------------
Local time stepping (steady state simulation).
Euler implicit method for the flow equations.
FGMRES is used for solving the linear system.
Using a LU-SGS preconditioning.
Convergence criteria of the linear solver: 0.0001.
Max number of linear iterations: 10.
V Multigrid Cycle, with 3 multigrid levels.
Damping factor for the residual restriction: 0.75.
Damping factor for the correction prolongation: 0.75.
CFL adaptation. Factor down: 0.1, factor up: 1.2,
                lower limit: 0.1, upper limit: 100,
                acceptable linear residual: 0.001.
+-------------------------------------------+
|  MG Level| Presmooth|PostSmooth|CorrectSmo|
+-------------------------------------------+
|         0|         1|         0|         1|
|         1|         2|         2|         2|
|         2|         3|         3|         3|
|         3|         3|         0|         0|
+-------------------------------------------+
Courant-Friedrichs-Lewy number:       12
Euler implicit time integration for the turbulence model.

------------------ Convergence Criteria  ( Zone 0 ) ---------------------
Maximum number of solver subiterations: 7000.
Begin convergence monitoring at iteration 500.
Residual minimum value: 1e-7.
Cauchy series min. value: 1e-10.
Number of Cauchy elements: 100.
Begin windowed time average at iteration 0.

-------------------- Output Information ( Zone 0 ) ----------------------
File writing frequency: 
+------------------------------------+
|                     File| Frequency|
+------------------------------------+
|                  RESTART|        50|
|                 PARAVIEW|        50|
|         SURFACE_PARAVIEW|        50|
|                      CSV|        50|
|              SURFACE_CSV|        50|
+------------------------------------+
Writing the convergence history file every 1 inner iterations.
Writing the screen convergence history every 10 inner iterations.
The tabular file format is CSV (.csv).
Convergence history file name: history_databladeVALIDATION_Blade_17.
Forces breakdown file name: forces_breakdown.dat.
Surface file name: surface_flowdatabladeVALIDATION_Blade_17.
Volume file name: volume_flow_databladeVALIDATION_Blade_17.
Restart file name: restart_flow_databladeVALIDATION_Blade_17.dat.

------------- Config File Boundary Information ( Zone 0 ) ---------------
+-----------------------------------------------------------------------+
|                        Marker Type|                        Marker Name|
+-----------------------------------------------------------------------+
|                  Periodic boundary|               symmetricWallsBOTTOM|
|                                   |                  symmetricWallsTOP|
+-----------------------------------------------------------------------+
|                     Inlet boundary|                              inlet|
+-----------------------------------------------------------------------+
|                    Outlet boundary|                             outlet|
+-----------------------------------------------------------------------+
|                     Heat flux wall|                             blade1|
|                                   |                             blade2|
+-----------------------------------------------------------------------+

-------------------- Output Preprocessing ( Zone 0 ) --------------------
  Info: Ignoring the following screen output fields:
  LINSOL_ITER_TRANS, LINSOL_RESIDUAL_TRANS
Screen output fields: INNER_ITER, CUR_TIME, RMS_DENSITY
  Info: Ignoring the following history output groups:
  RMS_TKE, RMS_DISSIPATION
History output group(s): INNER_ITER, WALL_TIME, RMS_DENSITY, RMS_MOMENTUM-X, RMS_ENERGY, LINSOL, CFL_NUMBER, FLOW_COEFF_SURF, AERO_COEFF_SURF
Convergence field(s): RMS_DENSITY
Warning: No (valid) fields chosen for time convergence monitoring. Time convergence monitoring inactive.
Volume output fields: COORDINATES, SOLUTION, PRIMITIVE, RESIDUAL, TIMESTEP, MESH_QUALITY, VORTEX_IDENTIFICATION

------------------- Geometry Preprocessing ( Zone 0 ) -------------------
Two dimensional problem.
40164 grid points before partitioning.
61876 volume elements before partitioning.
5 surface markers.
31 boundary elements in index 0 (Marker = inlet).
470 boundary elements in index 1 (Marker = symmetricWallsBOTTOM).
470 boundary elements in index 2 (Marker = symmetricWallsTOP).
31 boundary elements in index 3 (Marker = outlet).
698 boundary elements in index 4 (Marker = blade1).
Executing the partitioning functions.
Building the graph adjacency structure.
Calling ParMETIS... graph partitioning complete (1196 edge cuts).
Distributing ParMETIS coloring.
Rebalancing vertices.
Rebalancing volume element connectivity.
Rebalancing markers and surface elements.
41699 vertices including ghost points. 
63060 interior elements including halo cells. 
45983 triangles.
17077 quadrilaterals.
Establishing MPI communication patterns.
Setting point connectivity.
Renumbering points (Reverse Cuthill McKee Ordering).
Recomputing point connectivity.
Setting element connectivity.
Checking the numerical grid orientation.
All volume elements are correctly orientend.
There has been a re-orientation of 862 LINE surface elements.
Identifying edges and vertices.
Setting the control volume structure.
Area of the computational grid: 4.04982.
Searching for the closest normal neighbors to the surfaces.
Storing a mapping from global to local point index.
Compute the surface curvature.
Max K: 78.7426. Mean K: 2.12064. Standard deviation K: 8.84332.
Checking for periodicity.
WARNING: Periodicity has been detected. Disabling multigrid. 
Computing mesh quality statistics for the dual control volumes.
+--------------------------------------------------------------+
|           Mesh Quality Metric|        Minimum|        Maximum|
+--------------------------------------------------------------+
|    Orthogonality Angle (deg.)|        29.0106|             90|
|     CV Face Area Aspect Ratio|        1.00023|        729.248|
|           CV Sub-Volume Ratio|              1|        9.94332|
+--------------------------------------------------------------+
Finding max control volume width.
Communicating number of neighbors.
Reference length = 1.0192 m.
Wetted area = 3.59115 m.
Area projection in the x-plane = 1.30312 m, y-plane = 1.0192 m.
Max. coordinate in the x-direction = 1.01874 m, y-direction = 1.09516 m.
Min. coordinate in the x-direction = -0.000471963 m, y-direction = -0.207991 m.
Matching the periodic boundary points for marker pair 1.
 Matched 942 points with a max distance of: 2.0417e-13.
Computing wall distances.

-------------------- Solver Preprocessing ( Zone 0 ) --------------------
Viscous flow: Computing pressure using the ideal gas law
based on the free-stream temperature and a density computed
from the Reynolds number.
Force coefficients computed using free-stream values.

-- Models:
+------------------------------------------------------------------------------+
|          Viscosity Model|        Conductivity Model|              Fluid Model|
+------------------------------------------------------------------------------+
|               SUTHERLAND|          CONSTANT_PRANDTL|                IDEAL_GAS|
+------------------------------------------------------------------------------+
-- Fluid properties:
+------------------------------------------------------------------------------+
|                  Name|    Dim. value|    Ref. value|      Unit|Non-dim. value|
+------------------------------------------------------------------------------+
|        Ref. Viscosity|     1.716e-05|             1|   N.s/m^2|     1.716e-05|
|      Sutherland Temp.|        273.15|             1|         K|        273.15|
|     Sutherland Const.|         110.4|             1|         K|         110.4|
+------------------------------------------------------------------------------+
|        Prandtl (Lam.)|             -|             -|         -|          0.72|
|       Prandtl (Turb.)|             -|             -|         -|           0.9|
+------------------------------------------------------------------------------+
|          Gas Constant|       287.058|             1|  N.m/kg.K|       287.058|
|      Spec. Heat Ratio|             -|             -|         -|           1.4|
+------------------------------------------------------------------------------+
-- Initial and free-stream conditions:
+------------------------------------------------------------------------------+
|                  Name|    Dim. value|    Ref. value|      Unit|Non-dim. value|
+------------------------------------------------------------------------------+
|       Static Pressure|       5489.87|             1|        Pa|       5489.87|
|               Density|     0.0637486|             1|    kg/m^3|     0.0637486|
|           Temperature|           300|             1|         K|           300|
|          Total Energy|        230364|             1|   m^2/s^2|        230364|
|            Velocity-X|       171.922|             1|       m/s|       171.922|
|            Velocity-Y|      -24.1621|             1|       m/s|      -24.1621|
|    Velocity Magnitude|       173.612|             1|       m/s|       173.612|
+------------------------------------------------------------------------------+
|             Viscosity|   1.84592e-05|             1|   N.s/m^2|   1.84592e-05|
|          Conductivity|             -|             1|   W/m^2.K|             -|
|     Turb. Kin. Energy|       55.3843|             1|   m^2/s^2|       55.3843|
|     Spec. Dissipation|   1.91269e+06|             1|       1/s|   1.91269e+06|
+------------------------------------------------------------------------------+
|           Mach Number|             -|             -|         -|           0.5|
|       Reynolds Number|             -|             -|         -|        600000|
+------------------------------------------------------------------------------+
Initialize Jacobian structure (Navier-Stokes). MG level: 0.
Initialize Jacobian structure (SA model).

------------------- Numerics Preprocessing ( Zone 0 ) -------------------

----------------- Integration Preprocessing ( Zone 0 ) ------------------

------------------- Iteration Preprocessing ( Zone 0 ) ------------------
Euler/Navier-Stokes/RANS fluid iteration.

------------------------------ Begin Solver -----------------------------

Simulation Run using the Single-zone Driver
WARNING: SU2 was not compiled for an AVX-capable architecture. Performance could be better,
         see https://su2code.github.io/docs_v7/Build-SU2-Linux-MacOS/#compiler-optimizations
+--------------------------------------+
|  Inner_Iter|    Cur_Time|    rms[Rho]|
+--------------------------------------+
|           0|  0.0000e+00|   -2.196160|
|          10|  0.0000e+00|   -2.855368|
|          20|  0.0000e+00|   -2.741093|
|          30|  0.0000e+00|   -2.611009|
|          40|  0.0000e+00|   -2.746430|
|          50|  0.0000e+00|   -2.751468|
+-----------------------------------------------------------------------+
|        File Writing Summary       |              Filename             |
+-----------------------------------------------------------------------+
|SU2 binary restart                 |restart_flow_databladeVALIDATION_Blade_17.dat|
|                                   |                     (10423.8 MB/s)|
|Paraview                           |volume_flow_databladeVALIDATION_Blade_17.vtu|
|                                   |                     (847.756 MB/s)|
|Paraview surface                   |surface_flowdatabladeVALIDATION_Blade_17.vtu|
|                                   |                     (74.1691 MB/s)|
|SU2 ASCII restart                  |restart_flow_databladeVALIDATION_Blade_17.csv|
|                                   |                     (22.3917 MB/s)|
|CSV file                           |surface_flowdatabladeVALIDATION_Blade_17.csv|
|                                   |                     (20.7629 MB/s)|
+-----------------------------------------------------------------------+
+--------------------------------------+
|  Inner_Iter|    Cur_Time|    rms[Rho]|
+--------------------------------------+
|          60|  0.0000e+00|   -2.763636|
|          70|  0.0000e+00|   -2.861325|
|          80|  0.0000e+00|   -2.840361|
|          90|  0.0000e+00|   -2.772447|
|         100|  0.0000e+00|   -2.786943|
+-----------------------------------------------------------------------+
|        File Writing Summary       |              Filename             |
+-----------------------------------------------------------------------+
|SU2 binary restart                 |restart_flow_databladeVALIDATION_Blade_17.dat|
|                                   |                     (9280.25 MB/s)|
|Paraview                           |volume_flow_databladeVALIDATION_Blade_17.vtu|
|                                   |                     (800.229 MB/s)|
|Paraview surface                   |surface_flowdatabladeVALIDATION_Blade_17.vtu|
|                                   |                     (88.3152 MB/s)|
|SU2 ASCII restart                  |restart_flow_databladeVALIDATION_Blade_17.csv|
|                                   |                     (22.1946 MB/s)|
|CSV file                           |surface_flowdatabladeVALIDATION_Blade_17.csv|
|                                   |                     (20.5535 MB/s)|
+-----------------------------------------------------------------------+
+--------------------------------------+
|  Inner_Iter|    Cur_Time|    rms[Rho]|
+--------------------------------------+
|         110|  0.0000e+00|   -2.703032|
|         120|  0.0000e+00|   -2.593514|
|         130|  0.0000e+00|   -2.572923|
|         140|  0.0000e+00|   -2.524390|
|         150|  0.0000e+00|   -2.558769|
+-----------------------------------------------------------------------+
|        File Writing Summary       |              Filename             |
+-----------------------------------------------------------------------+
|SU2 binary restart                 |restart_flow_databladeVALIDATION_Blade_17.dat|
|                                   |                     (9479.11 MB/s)|
|Paraview                           |volume_flow_databladeVALIDATION_Blade_17.vtu|
|                                   |                     (811.249 MB/s)|
|Paraview surface                   |surface_flowdatabladeVALIDATION_Blade_17.vtu|
|                                   |                     (91.4939 MB/s)|
|SU2 ASCII restart                  |restart_flow_databladeVALIDATION_Blade_17.csv|
|                                   |                     (22.3578 MB/s)|
|CSV file                           |surface_flowdatabladeVALIDATION_Blade_17.csv|
|                                   |                     (21.0842 MB/s)|
+-----------------------------------------------------------------------+
+--------------------------------------+
|  Inner_Iter|    Cur_Time|    rms[Rho]|
+--------------------------------------+
|         160|  0.0000e+00|   -2.684642|
|         170|  0.0000e+00|   -2.690832|
|         180|  0.0000e+00|   -2.685990|
|         190|  0.0000e+00|   -2.627864|
|         200|  0.0000e+00|   -2.505297|
+-----------------------------------------------------------------------+
|        File Writing Summary       |              Filename             |
+-----------------------------------------------------------------------+
|SU2 binary restart                 |restart_flow_databladeVALIDATION_Blade_17.dat|
|                                   |                     (9679.62 MB/s)|
|Paraview                           |volume_flow_databladeVALIDATION_Blade_17.vtu|
|                                   |                     (800.811 MB/s)|
|Paraview surface                   |surface_flowdatabladeVALIDATION_Blade_17.vtu|
|                                   |                     (67.4366 MB/s)|
|SU2 ASCII restart                  |restart_flow_databladeVALIDATION_Blade_17.csv|
|                                   |                     (22.0579 MB/s)|
|CSV file                           |surface_flowdatabladeVALIDATION_Blade_17.csv|
|                                   |                     (21.5429 MB/s)|
+-----------------------------------------------------------------------+
+--------------------------------------+
|  Inner_Iter|    Cur_Time|    rms[Rho]|
+--------------------------------------+
|         210|  0.0000e+00|   -2.516546|
|         220|  0.0000e+00|   -2.521299|
|         230|  0.0000e+00|   -2.527004|
|         240|  0.0000e+00|   -2.495043|
|         250|  0.0000e+00|   -2.535773|
+-----------------------------------------------------------------------+
|        File Writing Summary       |              Filename             |
+-----------------------------------------------------------------------+
|SU2 binary restart                 |restart_flow_databladeVALIDATION_Blade_17.dat|
|                                   |                     (9767.78 MB/s)|
|Paraview                           |volume_flow_databladeVALIDATION_Blade_17.vtu|
|                                   |                      (914.24 MB/s)|
|Paraview surface                   |surface_flowdatabladeVALIDATION_Blade_17.vtu|
|                                   |                     (60.8236 MB/s)|
|SU2 ASCII restart                  |restart_flow_databladeVALIDATION_Blade_17.csv|
|                                   |                     (22.2588 MB/s)|
|CSV file                           |surface_flowdatabladeVALIDATION_Blade_17.csv|
|                                   |                     (21.3885 MB/s)|
+-----------------------------------------------------------------------+
+--------------------------------------+
|  Inner_Iter|    Cur_Time|    rms[Rho]|
+--------------------------------------+
|         260|  0.0000e+00|   -2.538319|
|         270|  0.0000e+00|   -2.541843|
|         280|  0.0000e+00|   -2.551841|
|         290|  0.0000e+00|   -2.533805|
|         300|  0.0000e+00|   -2.500914|
+-----------------------------------------------------------------------+
|        File Writing Summary       |              Filename             |
+-----------------------------------------------------------------------+
|SU2 binary restart                 |restart_flow_databladeVALIDATION_Blade_17.dat|
|                                   |                     (9337.38 MB/s)|
|Paraview                           |volume_flow_databladeVALIDATION_Blade_17.vtu|
|                                   |                     (747.895 MB/s)|
|Paraview surface                   |surface_flowdatabladeVALIDATION_Blade_17.vtu|
|                                   |                     (73.0809 MB/s)|
|SU2 ASCII restart                  |restart_flow_databladeVALIDATION_Blade_17.csv|
|                                   |                     (22.1654 MB/s)|
|CSV file                           |surface_flowdatabladeVALIDATION_Blade_17.csv|
|                                   |                     (21.5177 MB/s)|
+-----------------------------------------------------------------------+
+--------------------------------------+
|  Inner_Iter|    Cur_Time|    rms[Rho]|
+--------------------------------------+
|         310|  0.0000e+00|   -2.337470|
|         320|  0.0000e+00|   -2.168776|
|         330|  0.0000e+00|   -2.140153|
|         340|  0.0000e+00|   -2.127033|
|         350|  0.0000e+00|   -1.891861|
+-----------------------------------------------------------------------+
|        File Writing Summary       |              Filename             |
+-----------------------------------------------------------------------+
|SU2 binary restart                 |restart_flow_databladeVALIDATION_Blade_17.dat|
|                                   |                     (7043.93 MB/s)|
|Paraview                           |volume_flow_databladeVALIDATION_Blade_17.vtu|
|                                   |                     (818.345 MB/s)|
|Paraview surface                   |surface_flowdatabladeVALIDATION_Blade_17.vtu|
|                                   |                     (72.4733 MB/s)|
|SU2 ASCII restart                  |restart_flow_databladeVALIDATION_Blade_17.csv|
|                                   |                     (22.2387 MB/s)|
|CSV file                           |surface_flowdatabladeVALIDATION_Blade_17.csv|
|                                   |                     (19.3362 MB/s)|
+-----------------------------------------------------------------------+
+--------------------------------------+
|  Inner_Iter|    Cur_Time|    rms[Rho]|
+--------------------------------------+
|         360|  0.0000e+00|   -1.833908|
|         370|  0.0000e+00|   -1.848089|
|         380|  0.0000e+00|   -1.827723|
|         390|  0.0000e+00|   -1.674459|
|         400|  0.0000e+00|   -1.608970|
+-----------------------------------------------------------------------+
|        File Writing Summary       |              Filename             |
+-----------------------------------------------------------------------+
|SU2 binary restart                 |restart_flow_databladeVALIDATION_Blade_17.dat|
|                                   |                      (9062.4 MB/s)|
|Paraview                           |volume_flow_databladeVALIDATION_Blade_17.vtu|
|                                   |                       (863.7 MB/s)|
|Paraview surface                   |surface_flowdatabladeVALIDATION_Blade_17.vtu|
|                                   |                     (73.6311 MB/s)|
|SU2 ASCII restart                  |restart_flow_databladeVALIDATION_Blade_17.csv|
|                                   |                     (22.3542 MB/s)|
|CSV file                           |surface_flowdatabladeVALIDATION_Blade_17.csv|
|                                   |                     (21.3163 MB/s)|
+-----------------------------------------------------------------------+
+--------------------------------------+
|  Inner_Iter|    Cur_Time|    rms[Rho]|
+--------------------------------------+
|         410|  0.0000e+00|   -1.623526|
|         420|  0.0000e+00|   -1.518964|
|         430|  0.0000e+00|   -1.451547|
|         440|  0.0000e+00|   -1.392093|
|         450|  0.0000e+00|   -1.302146|
+-----------------------------------------------------------------------+
|        File Writing Summary       |              Filename             |
+-----------------------------------------------------------------------+
|SU2 binary restart                 |restart_flow_databladeVALIDATION_Blade_17.dat|
|                                   |                     (9525.89 MB/s)|
|Paraview                           |volume_flow_databladeVALIDATION_Blade_17.vtu|
|                                   |                     (873.759 MB/s)|
|Paraview surface                   |surface_flowdatabladeVALIDATION_Blade_17.vtu|
|                                   |                      (73.449 MB/s)|
|SU2 ASCII restart                  |restart_flow_databladeVALIDATION_Blade_17.csv|
|                                   |                     (22.5454 MB/s)|
|CSV file                           |surface_flowdatabladeVALIDATION_Blade_17.csv|
|                                   |                     (18.8702 MB/s)|
+-----------------------------------------------------------------------+


Error in "void CSolver::SetResidual_RMS(const CGeometry*, const CConfig*)": 
-------------------------------------------------------------------------
SU2 has diverged (NaN detected).
------------------------------ Error Exit -------------------------------



job aborted:
[ranks] message

[0] application aborted
aborting MPI_COMM_WORLD (comm=0x44000000), error 1, comm rank 0

[1-11] terminated

---- error analysis -----

[0] on LAPTOP-UFVPVEMV
SU2_CFD aborted the job. abort code 1

---- error analysis -----
