
-------------------------------------------------------------------------
|    ___ _   _ ___                                                      |
|   / __| | | |_  )   Release 8.0.1 "Harrier"                           |
|   \__ \ |_| |/ /                                                      |
|   |___/\___//___|   Suite (Computational Fluid Dynamics Code)         |
|                                                                       |
-------------------------------------------------------------------------
| SU2 Project Website: https://su2code.github.io                        |
|                                                                       |
| The SU2 Project is maintained by the SU2 Foundation                   |
| (http://su2foundation.org)                                            |
-------------------------------------------------------------------------
| Copyright 2012-2024, SU2 Contributors                                 |
|                                                                       |
| SU2 is free software; you can redistribute it and/or                  |
| modify it under the terms of the GNU Lesser General Public            |
| License as published by the Free Software Foundation; either          |
| version 2.1 of the License, or (at your option) any later version.    |
|                                                                       |
| SU2 is distributed in the hope that it will be useful,                |
| but WITHOUT ANY WARRANTY; without even the implied warranty of        |
| MERCHANTABILITY or FITNESS FOR A PARTICULAR PURPOSE. See the GNU      |
| Lesser General Public License for more details.                       |
|                                                                       |
| You should have received a copy of the GNU Lesser General Public      |
| License along with SU2. If not, see <http://www.gnu.org/licenses/>.   |
-------------------------------------------------------------------------

Parsing config file for zone 0

----------------- Physical Case Definition ( Zone 0 ) -------------------
Compressible RANS equations.
Turbulence model: Spalart-Allmaras-noft2-BCM
Hybrid RANS/LES: No Hybrid RANS/LES
Mach number: 0.667.
Angle of attack (AoA): -19 deg, and angle of sideslip (AoS): 0 deg.
Reynolds number: 600000. Reference length 1.00151.
No restart solution, use the values at infinity (freestream).
Dimensional simulation.
The reference area will be computed using y(2D) or z(3D) projection.
The semi-span will be computed using the max y(3D) value.
The reference length is 1.00151 m.
Reference origin for moment evaluation is (0, 0, 0).
Surface(s) where the force coefficients are evaluated: blade1.

Surface(s) plotted in the output file: blade1.
Surface(s) to be analyzed in detail: inlet, outlet, blade1.
Input mesh file name: cascade2D_databladeVALIDATION_Blade_22.su2

--------------- Space Numerical Integration ( Zone 0 ) ------------------
Jameson-Schmidt-Turkel scheme (2nd order in space) for the flow inviscid terms.
JST viscous coefficients (2nd & 4th): 0.5, 0.02.
The method includes a grid stretching correction (p = 0.3).
Scalar upwind solver for the turbulence model.
First order integration in space.
Average of gradients with correction (viscous flow terms).
Average of gradients with correction (viscous turbulence terms).
Gradient for upwind reconstruction: inverse-distance weighted Least-Squares.
Gradient for viscous and source terms: inverse-distance weighted Least-Squares.

--------------- Time Numerical Integration  ( Zone 0 ) ------------------
Local time stepping (steady state simulation).
Euler implicit method for the flow equations.
FGMRES is used for solving the linear system.
Using a LU-SGS preconditioning.
Convergence criteria of the linear solver: 0.0001.
Max number of linear iterations: 10.
V Multigrid Cycle, with 3 multigrid levels.
Damping factor for the residual restriction: 0.75.
Damping factor for the correction prolongation: 0.75.
CFL adaptation. Factor down: 0.1, factor up: 1.2,
                lower limit: 0.1, upper limit: 100,
                acceptable linear residual: 0.001.
+-------------------------------------------+
|  MG Level| Presmooth|PostSmooth|CorrectSmo|
+-------------------------------------------+
|         0|         1|         0|         1|
|         1|         2|         2|         2|
|         2|         3|         3|         3|
|         3|         3|         0|         0|
+-------------------------------------------+
Courant-Friedrichs-Lewy number:       12
Euler implicit time integration for the turbulence model.

------------------ Convergence Criteria  ( Zone 0 ) ---------------------
Maximum number of solver subiterations: 7000.
Begin convergence monitoring at iteration 500.
Residual minimum value: 1e-7.
Cauchy series min. value: 1e-10.
Number of Cauchy elements: 100.
Begin windowed time average at iteration 0.

-------------------- Output Information ( Zone 0 ) ----------------------
File writing frequency: 
+------------------------------------+
|                     File| Frequency|
+------------------------------------+
|                  RESTART|        50|
|                 PARAVIEW|        50|
|         SURFACE_PARAVIEW|        50|
|                      CSV|        50|
|              SURFACE_CSV|        50|
+------------------------------------+
Writing the convergence history file every 1 inner iterations.
Writing the screen convergence history every 10 inner iterations.
The tabular file format is CSV (.csv).
Convergence history file name: history_databladeVALIDATION_Blade_22.
Forces breakdown file name: forces_breakdown.dat.
Surface file name: surface_flowdatabladeVALIDATION_Blade_22.
Volume file name: volume_flow_databladeVALIDATION_Blade_22.
Restart file name: restart_flow_databladeVALIDATION_Blade_22.dat.

------------- Config File Boundary Information ( Zone 0 ) ---------------
+-----------------------------------------------------------------------+
|                        Marker Type|                        Marker Name|
+-----------------------------------------------------------------------+
|                  Periodic boundary|               symmetricWallsBOTTOM|
|                                   |                  symmetricWallsTOP|
+-----------------------------------------------------------------------+
|                     Inlet boundary|                              inlet|
+-----------------------------------------------------------------------+
|                    Outlet boundary|                             outlet|
+-----------------------------------------------------------------------+
|                     Heat flux wall|                             blade1|
|                                   |                             blade2|
+-----------------------------------------------------------------------+

-------------------- Output Preprocessing ( Zone 0 ) --------------------
  Info: Ignoring the following screen output fields:
  LINSOL_ITER_TRANS, LINSOL_RESIDUAL_TRANS
Screen output fields: INNER_ITER, WALL_TIME, RMS_DENSITY
  Info: Ignoring the following history output groups:
  RMS_TKE, RMS_DISSIPATION
History output group(s): INNER_ITER, WALL_TIME, RMS_DENSITY, RMS_MOMENTUM-X, RMS_ENERGY, LINSOL, CFL_NUMBER, FLOW_COEFF_SURF, AERO_COEFF_SURF
Convergence field(s): RMS_DENSITY
Warning: No (valid) fields chosen for time convergence monitoring. Time convergence monitoring inactive.
Volume output fields: COORDINATES, SOLUTION, PRIMITIVE, RESIDUAL, TIMESTEP, MESH_QUALITY, VORTEX_IDENTIFICATION

------------------- Geometry Preprocessing ( Zone 0 ) -------------------
Two dimensional problem.
68446 grid points before partitioning.
106448 volume elements before partitioning.
5 surface markers.
35 boundary elements in index 0 (Marker = inlet).
362 boundary elements in index 1 (Marker = symmetricWallsBOTTOM).
362 boundary elements in index 2 (Marker = symmetricWallsTOP).
35 boundary elements in index 3 (Marker = outlet).
1186 boundary elements in index 4 (Marker = blade1).
Executing the partitioning functions.
Building the graph adjacency structure.
Calling ParMETIS... graph partitioning complete (1603 edge cuts).
Distributing ParMETIS coloring.
Rebalancing vertices.
Rebalancing volume element connectivity.
Rebalancing markers and surface elements.
70389 vertices including ghost points. 
108042 interior elements including halo cells. 
79253 triangles.
28789 quadrilaterals.
Establishing MPI communication patterns.
Setting point connectivity.
Renumbering points (Reverse Cuthill McKee Ordering).
Recomputing point connectivity.
Setting element connectivity.
Checking the numerical grid orientation.
All volume elements are correctly orientend.
There has been a re-orientation of 1000 LINE surface elements.
Identifying edges and vertices.
Setting the control volume structure.
Area of the computational grid: 4.61709.
Searching for the closest normal neighbors to the surfaces.
Storing a mapping from global to local point index.
Compute the surface curvature.
Max K: 119.494. Mean K: 3.09221. Standard deviation K: 11.2858.
Checking for periodicity.
WARNING: Periodicity has been detected. Disabling multigrid. 
Computing mesh quality statistics for the dual control volumes.
+--------------------------------------------------------------+
|           Mesh Quality Metric|        Minimum|        Maximum|
+--------------------------------------------------------------+
|    Orthogonality Angle (deg.)|        41.2099|             90|
|     CV Face Area Aspect Ratio|        1.00017|         393.55|
|           CV Sub-Volume Ratio|              1|        20.8219|
+--------------------------------------------------------------+
Finding max control volume width.
Communicating number of neighbors.
Reference length = 1.02182 m.
Wetted area = 3.39502 m.
Area projection in the x-plane = 1.22709 m, y-plane = 1.02182 m.
Max. coordinate in the x-direction = 1.0158 m, y-direction = 0.961987 m.
Min. coordinate in the x-direction = -0.00605425 m, y-direction = -0.265113 m.
Matching the periodic boundary points for marker pair 1.
 Matched 726 points with a max distance of: 9.98152e-14.
Computing wall distances.

-------------------- Solver Preprocessing ( Zone 0 ) --------------------
Viscous flow: Computing pressure using the ideal gas law
based on the free-stream temperature and a density computed
from the Reynolds number.
Force coefficients computed using free-stream values.

-- Models:
+------------------------------------------------------------------------------+
|          Viscosity Model|        Conductivity Model|              Fluid Model|
+------------------------------------------------------------------------------+
|               SUTHERLAND|          CONSTANT_PRANDTL|                IDEAL_GAS|
+------------------------------------------------------------------------------+
-- Fluid properties:
+------------------------------------------------------------------------------+
|                  Name|    Dim. value|    Ref. value|      Unit|Non-dim. value|
+------------------------------------------------------------------------------+
|        Ref. Viscosity|     1.716e-05|             1|   N.s/m^2|     1.716e-05|
|      Sutherland Temp.|        273.15|             1|         K|        273.15|
|     Sutherland Const.|         110.4|             1|         K|         110.4|
+------------------------------------------------------------------------------+
|        Prandtl (Lam.)|             -|             -|         -|          0.72|
|       Prandtl (Turb.)|             -|             -|         -|           0.9|
+------------------------------------------------------------------------------+
|          Gas Constant|       287.058|             1|  N.m/kg.K|       287.058|
|      Spec. Heat Ratio|             -|             -|         -|           1.4|
+------------------------------------------------------------------------------+
-- Initial and free-stream conditions:
+------------------------------------------------------------------------------+
|                  Name|    Dim. value|    Ref. value|      Unit|Non-dim. value|
+------------------------------------------------------------------------------+
|       Static Pressure|       4112.11|             1|        Pa|       4112.11|
|               Density|     0.0477501|             1|    kg/m^3|     0.0477501|
|           Temperature|           300|             1|         K|           300|
|          Total Energy|        242112|             1|   m^2/s^2|        242112|
|            Velocity-X|        218.98|             1|       m/s|        218.98|
|            Velocity-Y|       -75.401|             1|       m/s|       -75.401|
|    Velocity Magnitude|       231.598|             1|       m/s|       231.598|
+------------------------------------------------------------------------------+
|             Viscosity|   1.84592e-05|             1|   N.s/m^2|   1.84592e-05|
|          Conductivity|             -|             1|   W/m^2.K|             -|
|     Turb. Kin. Energy|       98.5594|             1|   m^2/s^2|       98.5594|
|     Spec. Dissipation|   2.54953e+06|             1|       1/s|   2.54953e+06|
+------------------------------------------------------------------------------+
|           Mach Number|             -|             -|         -|         0.667|
|       Reynolds Number|             -|             -|         -|        600000|
+------------------------------------------------------------------------------+
Initialize Jacobian structure (Navier-Stokes). MG level: 0.
Initialize Jacobian structure (SA model).

------------------- Numerics Preprocessing ( Zone 0 ) -------------------

----------------- Integration Preprocessing ( Zone 0 ) ------------------

------------------- Iteration Preprocessing ( Zone 0 ) ------------------
Euler/Navier-Stokes/RANS fluid iteration.

------------------------------ Begin Solver -----------------------------

Simulation Run using the Single-zone Driver
WARNING: SU2 was not compiled for an AVX-capable architecture. Performance could be better,
         see https://su2code.github.io/docs_v7/Build-SU2-Linux-MacOS/#compiler-optimizations
+--------------------------------------+
|  Inner_Iter|   Time(sec)|    rms[Rho]|
+--------------------------------------+
|           0|  7.5357e-02|   -2.426583|
|          10|  6.8263e-02|   -3.078266|
|          20|  7.0792e-02|   -2.908747|
|          30|  7.1428e-02|   -2.901114|
|          40|  6.9453e-02|   -2.866543|
|          50|  7.3222e-02|   -2.634597|
+-----------------------------------------------------------------------+
|        File Writing Summary       |              Filename             |
+-----------------------------------------------------------------------+
|SU2 binary restart                 |restart_flow_databladeVALIDATION_Blade_22.dat|
|                                   |                     (10231.4 MB/s)|
|Paraview                           |volume_flow_databladeVALIDATION_Blade_22.vtu|
|                                   |                      (1164.5 MB/s)|
|Paraview surface                   |surface_flowdatabladeVALIDATION_Blade_22.vtu|
|                                   |                     (100.629 MB/s)|
|SU2 ASCII restart                  |restart_flow_databladeVALIDATION_Blade_22.csv|
|                                   |                     (21.5898 MB/s)|
|CSV file                           |surface_flowdatabladeVALIDATION_Blade_22.csv|
|                                   |                      (20.841 MB/s)|
+-----------------------------------------------------------------------+
+--------------------------------------+
|  Inner_Iter|   Time(sec)|    rms[Rho]|
+--------------------------------------+
|          60|  1.1411e-01|   -2.820953|
|          70|  1.0758e-01|   -2.936809|
|          80|  1.0334e-01|   -2.976491|
|          90|  1.0079e-01|   -2.963865|
|         100|  9.7068e-02|   -3.008210|
+-----------------------------------------------------------------------+
|        File Writing Summary       |              Filename             |
+-----------------------------------------------------------------------+
|SU2 binary restart                 |restart_flow_databladeVALIDATION_Blade_22.dat|
|                                   |                     (13770.2 MB/s)|
|Paraview                           |volume_flow_databladeVALIDATION_Blade_22.vtu|
|                                   |                     (1147.22 MB/s)|
|Paraview surface                   |surface_flowdatabladeVALIDATION_Blade_22.vtu|
|                                   |                      (73.225 MB/s)|
|SU2 ASCII restart                  |restart_flow_databladeVALIDATION_Blade_22.csv|
|                                   |                     (22.0721 MB/s)|
|CSV file                           |surface_flowdatabladeVALIDATION_Blade_22.csv|
|                                   |                     (20.2268 MB/s)|
+-----------------------------------------------------------------------+
+--------------------------------------+
|  Inner_Iter|   Time(sec)|    rms[Rho]|
+--------------------------------------+
|         110|  1.1790e-01|   -2.926413|
|         120|  1.1451e-01|   -2.908449|
|         130|  1.1111e-01|   -3.027589|
|         140|  1.0865e-01|   -3.003411|
|         150|  1.0629e-01|   -3.096714|
+-----------------------------------------------------------------------+
|        File Writing Summary       |              Filename             |
+-----------------------------------------------------------------------+
|SU2 binary restart                 |restart_flow_databladeVALIDATION_Blade_22.dat|
|                                   |                     (11225.4 MB/s)|
|Paraview                           |volume_flow_databladeVALIDATION_Blade_22.vtu|
|                                   |                     (1169.79 MB/s)|
|Paraview surface                   |surface_flowdatabladeVALIDATION_Blade_22.vtu|
|                                   |                     (100.473 MB/s)|
|SU2 ASCII restart                  |restart_flow_databladeVALIDATION_Blade_22.csv|
|                                   |                      (21.911 MB/s)|
|CSV file                           |surface_flowdatabladeVALIDATION_Blade_22.csv|
|                                   |                     (21.6376 MB/s)|
+-----------------------------------------------------------------------+
+--------------------------------------+
|  Inner_Iter|   Time(sec)|    rms[Rho]|
+--------------------------------------+
|         160|  1.1920e-01|   -3.133839|
|         170|  1.1642e-01|   -3.079982|
|         180|  1.1404e-01|   -3.045220|
|         190|  1.1177e-01|   -3.095677|
|         200|  1.0933e-01|   -3.139264|
+-----------------------------------------------------------------------+
|        File Writing Summary       |              Filename             |
+-----------------------------------------------------------------------+
|SU2 binary restart                 |restart_flow_databladeVALIDATION_Blade_22.dat|
|                                   |                     (11005.4 MB/s)|
|Paraview                           |volume_flow_databladeVALIDATION_Blade_22.vtu|
|                                   |                      (1056.9 MB/s)|
|Paraview surface                   |surface_flowdatabladeVALIDATION_Blade_22.vtu|
|                                   |                     (103.306 MB/s)|
|SU2 ASCII restart                  |restart_flow_databladeVALIDATION_Blade_22.csv|
|                                   |                     (22.3071 MB/s)|
|CSV file                           |surface_flowdatabladeVALIDATION_Blade_22.csv|
|                                   |                     (21.2493 MB/s)|
+-----------------------------------------------------------------------+
+--------------------------------------+
|  Inner_Iter|   Time(sec)|    rms[Rho]|
+--------------------------------------+
|         210|  1.1935e-01|   -3.046442|
|         220|  1.1748e-01|   -3.134983|
|         230|  1.1526e-01|   -3.262766|
|         240|  1.1332e-01|   -3.258158|
|         250|  1.1203e-01|   -3.173134|
+-----------------------------------------------------------------------+
|        File Writing Summary       |              Filename             |
+-----------------------------------------------------------------------+
|SU2 binary restart                 |restart_flow_databladeVALIDATION_Blade_22.dat|
|                                   |                     (11371.6 MB/s)|
|Paraview                           |volume_flow_databladeVALIDATION_Blade_22.vtu|
|                                   |                     (1125.37 MB/s)|
|Paraview surface                   |surface_flowdatabladeVALIDATION_Blade_22.vtu|
|                                   |                     (26.3361 MB/s)|
|SU2 ASCII restart                  |restart_flow_databladeVALIDATION_Blade_22.csv|
|                                   |                     (21.6999 MB/s)|
|CSV file                           |surface_flowdatabladeVALIDATION_Blade_22.csv|
|                                   |                     (20.9636 MB/s)|
+-----------------------------------------------------------------------+
+--------------------------------------+
|  Inner_Iter|   Time(sec)|    rms[Rho]|
+--------------------------------------+
|         260|  1.2042e-01|   -3.258857|
|         270|  1.1842e-01|   -3.245612|
|         280|  1.1679e-01|   -3.212389|
|         290|  1.1547e-01|   -3.264192|
|         300|  1.1394e-01|   -3.312357|
+-----------------------------------------------------------------------+
|        File Writing Summary       |              Filename             |
+-----------------------------------------------------------------------+
|SU2 binary restart                 |restart_flow_databladeVALIDATION_Blade_22.dat|
|                                   |                     (14915.1 MB/s)|
|Paraview                           |volume_flow_databladeVALIDATION_Blade_22.vtu|
|                                   |                     (1182.59 MB/s)|
|Paraview surface                   |surface_flowdatabladeVALIDATION_Blade_22.vtu|
|                                   |                     (92.1336 MB/s)|
|SU2 ASCII restart                  |restart_flow_databladeVALIDATION_Blade_22.csv|
|                                   |                     (22.1112 MB/s)|
|CSV file                           |surface_flowdatabladeVALIDATION_Blade_22.csv|
|                                   |                     (21.9158 MB/s)|
+-----------------------------------------------------------------------+
+--------------------------------------+
|  Inner_Iter|   Time(sec)|    rms[Rho]|
+--------------------------------------+
|         310|  1.2036e-01|   -3.310854|
|         320|  1.1897e-01|   -3.186332|
|         330|  1.1769e-01|   -3.292384|
|         340|  1.1642e-01|   -3.342901|
|         350|  1.1531e-01|   -3.340359|
+-----------------------------------------------------------------------+
|        File Writing Summary       |              Filename             |
+-----------------------------------------------------------------------+
|SU2 binary restart                 |restart_flow_databladeVALIDATION_Blade_22.dat|
|                                   |                     (12797.6 MB/s)|
|Paraview                           |volume_flow_databladeVALIDATION_Blade_22.vtu|
|                                   |                     (1146.21 MB/s)|
|Paraview surface                   |surface_flowdatabladeVALIDATION_Blade_22.vtu|
|                                   |                     (102.047 MB/s)|
|SU2 ASCII restart                  |restart_flow_databladeVALIDATION_Blade_22.csv|
|                                   |                     (21.2496 MB/s)|
|CSV file                           |surface_flowdatabladeVALIDATION_Blade_22.csv|
|                                   |                     (21.4356 MB/s)|
+-----------------------------------------------------------------------+
+--------------------------------------+
|  Inner_Iter|   Time(sec)|    rms[Rho]|
+--------------------------------------+
|         360|  1.2131e-01|   -3.404591|
|         370|  1.1983e-01|   -3.286426|
|         380|  1.1771e-01|   -3.315000|
|         390|  1.1572e-01|   -3.338447|
|         400|  1.1382e-01|   -3.382709|
+-----------------------------------------------------------------------+
|        File Writing Summary       |              Filename             |
+-----------------------------------------------------------------------+
|SU2 binary restart                 |restart_flow_databladeVALIDATION_Blade_22.dat|
|                                   |                     (14855.1 MB/s)|
|Paraview                           |volume_flow_databladeVALIDATION_Blade_22.vtu|
|                                   |                     (1165.15 MB/s)|
|Paraview surface                   |surface_flowdatabladeVALIDATION_Blade_22.vtu|
|                                   |                     (104.884 MB/s)|
|SU2 ASCII restart                  |restart_flow_databladeVALIDATION_Blade_22.csv|
|                                   |                     (21.5287 MB/s)|
|CSV file                           |surface_flowdatabladeVALIDATION_Blade_22.csv|
|                                   |                     (21.7284 MB/s)|
+-----------------------------------------------------------------------+
+--------------------------------------+
|  Inner_Iter|   Time(sec)|    rms[Rho]|
+--------------------------------------+
|         410|  1.1845e-01|   -3.470906|
|         420|  1.1744e-01|   -3.509994|
|         430|  1.1630e-01|   -3.569887|
|         440|  1.1529e-01|   -3.584474|
|         450|  1.1449e-01|   -3.450184|
+-----------------------------------------------------------------------+
|        File Writing Summary       |              Filename             |
+-----------------------------------------------------------------------+
|SU2 binary restart                 |restart_flow_databladeVALIDATION_Blade_22.dat|
|                                   |                     (10484.1 MB/s)|
|Paraview                           |volume_flow_databladeVALIDATION_Blade_22.vtu|
|                                   |                     (1276.73 MB/s)|
|Paraview surface                   |surface_flowdatabladeVALIDATION_Blade_22.vtu|
|                                   |                     (100.281 MB/s)|
|SU2 ASCII restart                  |restart_flow_databladeVALIDATION_Blade_22.csv|
|                                   |                     (21.9172 MB/s)|
|CSV file                           |surface_flowdatabladeVALIDATION_Blade_22.csv|
|                                   |                     (22.4939 MB/s)|
+-----------------------------------------------------------------------+
+--------------------------------------+
|  Inner_Iter|   Time(sec)|    rms[Rho]|
+--------------------------------------+
|         460|  1.1896e-01|   -3.580848|
|         470|  1.1784e-01|   -3.634899|
|         480|  1.1692e-01|   -3.589780|
|         490|  1.1615e-01|   -3.591122|
|         500|  1.1515e-01|   -3.703315|
+-----------------------------------------------------------------------+
|        File Writing Summary       |              Filename             |
+-----------------------------------------------------------------------+
|SU2 binary restart                 |restart_flow_databladeVALIDATION_Blade_22.dat|
|                                   |                       (16051 MB/s)|
|Paraview                           |volume_flow_databladeVALIDATION_Blade_22.vtu|
|                                   |                     (1077.08 MB/s)|
|Paraview surface                   |surface_flowdatabladeVALIDATION_Blade_22.vtu|
|                                   |                      (95.257 MB/s)|
|SU2 ASCII restart                  |restart_flow_databladeVALIDATION_Blade_22.csv|
|                                   |                     (21.2412 MB/s)|
|CSV file                           |surface_flowdatabladeVALIDATION_Blade_22.csv|
|                                   |                     (20.0171 MB/s)|
+-----------------------------------------------------------------------+
+--------------------------------------+
|  Inner_Iter|   Time(sec)|    rms[Rho]|
+--------------------------------------+
|         510|  1.1929e-01|   -3.741833|
|         520|  1.1846e-01|   -3.696132|
|         530|  1.1768e-01|   -3.698772|
|         540|  1.1676e-01|   -3.721596|
|         550|  1.1594e-01|   -3.721139|
+-----------------------------------------------------------------------+
|        File Writing Summary       |              Filename             |
+-----------------------------------------------------------------------+
|SU2 binary restart                 |restart_flow_databladeVALIDATION_Blade_22.dat|
|                                   |                     (14029.8 MB/s)|
|Paraview                           |volume_flow_databladeVALIDATION_Blade_22.vtu|
|                                   |                     (1085.04 MB/s)|
|Paraview surface                   |surface_flowdatabladeVALIDATION_Blade_22.vtu|
|                                   |                     (142.604 MB/s)|
|SU2 ASCII restart                  |restart_flow_databladeVALIDATION_Blade_22.csv|
|                                   |                     (21.7812 MB/s)|
|CSV file                           |surface_flowdatabladeVALIDATION_Blade_22.csv|
|                                   |                     (22.2691 MB/s)|
+-----------------------------------------------------------------------+
+--------------------------------------+
|  Inner_Iter|   Time(sec)|    rms[Rho]|
+--------------------------------------+
|         560|  1.1975e-01|   -3.651826|
|         570|  1.1892e-01|   -3.738463|
|         580|  1.1802e-01|   -3.789666|
|         590|  1.1739e-01|   -3.780790|
|         600|  1.1667e-01|   -3.829452|
+-----------------------------------------------------------------------+
|        File Writing Summary       |              Filename             |
+-----------------------------------------------------------------------+
|SU2 binary restart                 |restart_flow_databladeVALIDATION_Blade_22.dat|
|                                   |                     (13638.3 MB/s)|
|Paraview                           |volume_flow_databladeVALIDATION_Blade_22.vtu|
|                                   |                     (1144.38 MB/s)|
|Paraview surface                   |surface_flowdatabladeVALIDATION_Blade_22.vtu|
|                                   |                     (92.6505 MB/s)|
|SU2 ASCII restart                  |restart_flow_databladeVALIDATION_Blade_22.csv|
|                                   |                     (21.9961 MB/s)|
|CSV file                           |surface_flowdatabladeVALIDATION_Blade_22.csv|
|                                   |                     (20.3076 MB/s)|
+-----------------------------------------------------------------------+
+--------------------------------------+
|  Inner_Iter|   Time(sec)|    rms[Rho]|
+--------------------------------------+
|         610|  1.1991e-01|   -3.843856|
|         620|  1.1914e-01|   -3.857107|
|         630|  1.1856e-01|   -3.814616|
|         640|  1.1776e-01|   -3.904320|
|         650|  1.1699e-01|   -3.916514|
+-----------------------------------------------------------------------+
|        File Writing Summary       |              Filename             |
+-----------------------------------------------------------------------+
|SU2 binary restart                 |restart_flow_databladeVALIDATION_Blade_22.dat|
|                                   |                     (13324.8 MB/s)|
|Paraview                           |volume_flow_databladeVALIDATION_Blade_22.vtu|
|                                   |                     (1205.56 MB/s)|
|Paraview surface                   |surface_flowdatabladeVALIDATION_Blade_22.vtu|
|                                   |                     (89.9541 MB/s)|
|SU2 ASCII restart                  |restart_flow_databladeVALIDATION_Blade_22.csv|
|                                   |                     (22.2014 MB/s)|
|CSV file                           |surface_flowdatabladeVALIDATION_Blade_22.csv|
|                                   |                     (21.8985 MB/s)|
+-----------------------------------------------------------------------+
+--------------------------------------+
|  Inner_Iter|   Time(sec)|    rms[Rho]|
+--------------------------------------+
|         660|  1.2012e-01|   -3.849604|
|         670|  1.1948e-01|   -3.881231|
|         680|  1.1872e-01|   -3.950933|
|         690|  1.1804e-01|   -3.954741|
|         700|  1.1754e-01|   -3.965104|
+-----------------------------------------------------------------------+
|        File Writing Summary       |              Filename             |
+-----------------------------------------------------------------------+
|SU2 binary restart                 |restart_flow_databladeVALIDATION_Blade_22.dat|
|                                   |                     (14088.9 MB/s)|
|Paraview                           |volume_flow_databladeVALIDATION_Blade_22.vtu|
|                                   |                     (1195.79 MB/s)|
|Paraview surface                   |surface_flowdatabladeVALIDATION_Blade_22.vtu|
|                                   |                     (100.603 MB/s)|
|SU2 ASCII restart                  |restart_flow_databladeVALIDATION_Blade_22.csv|
|                                   |                     (21.4524 MB/s)|
|CSV file                           |surface_flowdatabladeVALIDATION_Blade_22.csv|
|                                   |                     (20.8275 MB/s)|
+-----------------------------------------------------------------------+
+--------------------------------------+
|  Inner_Iter|   Time(sec)|    rms[Rho]|
+--------------------------------------+
|         710|  1.2042e-01|   -4.041286|
|         720|  1.1973e-01|   -4.046529|
|         730|  1.1914e-01|   -4.013856|
|         740|  1.1859e-01|   -4.058046|
|         750|  1.1809e-01|   -4.057312|
+-----------------------------------------------------------------------+
|        File Writing Summary       |              Filename             |
+-----------------------------------------------------------------------+
|SU2 binary restart                 |restart_flow_databladeVALIDATION_Blade_22.dat|
|                                   |                     (11579.1 MB/s)|
|Paraview                           |volume_flow_databladeVALIDATION_Blade_22.vtu|
|                                   |                     (1141.75 MB/s)|
|Paraview surface                   |surface_flowdatabladeVALIDATION_Blade_22.vtu|
|                                   |                     (105.053 MB/s)|
|SU2 ASCII restart                  |restart_flow_databladeVALIDATION_Blade_22.csv|
|                                   |                     (21.7871 MB/s)|
|CSV file                           |surface_flowdatabladeVALIDATION_Blade_22.csv|
|                                   |                     (21.1527 MB/s)|
+-----------------------------------------------------------------------+
+--------------------------------------+
|  Inner_Iter|   Time(sec)|    rms[Rho]|
+--------------------------------------+
|         760|  1.2084e-01|   -4.027892|
|         770|  1.2023e-01|   -4.092171|
|         780|  1.1955e-01|   -4.136361|
|         790|  1.1893e-01|   -4.130337|
|         800|  1.1841e-01|   -4.106199|
+-----------------------------------------------------------------------+
|        File Writing Summary       |              Filename             |
+-----------------------------------------------------------------------+
|SU2 binary restart                 |restart_flow_databladeVALIDATION_Blade_22.dat|
|                                   |                     (13307.1 MB/s)|
|Paraview                           |volume_flow_databladeVALIDATION_Blade_22.vtu|
|                                   |                      (1181.3 MB/s)|
|Paraview surface                   |surface_flowdatabladeVALIDATION_Blade_22.vtu|
|                                   |                     (106.365 MB/s)|
|SU2 ASCII restart                  |restart_flow_databladeVALIDATION_Blade_22.csv|
|                                   |                     (21.4591 MB/s)|
|CSV file                           |surface_flowdatabladeVALIDATION_Blade_22.csv|
|                                   |                     (21.1982 MB/s)|
+-----------------------------------------------------------------------+
+--------------------------------------+
|  Inner_Iter|   Time(sec)|    rms[Rho]|
+--------------------------------------+
|         810|  1.2095e-01|   -4.187295|
|         820|  1.2030e-01|   -4.205332|
|         830|  1.1973e-01|   -4.209004|
|         840|  1.1922e-01|   -4.219309|
|         850|  1.1859e-01|   -4.274011|
+-----------------------------------------------------------------------+
|        File Writing Summary       |              Filename             |
+-----------------------------------------------------------------------+
|SU2 binary restart                 |restart_flow_databladeVALIDATION_Blade_22.dat|
|                                   |                     (13669.3 MB/s)|
|Paraview                           |volume_flow_databladeVALIDATION_Blade_22.vtu|
|                                   |                     (1243.01 MB/s)|
|Paraview surface                   |surface_flowdatabladeVALIDATION_Blade_22.vtu|
|                                   |                     (99.6223 MB/s)|
|SU2 ASCII restart                  |restart_flow_databladeVALIDATION_Blade_22.csv|
|                                   |                     (21.4574 MB/s)|
|CSV file                           |surface_flowdatabladeVALIDATION_Blade_22.csv|
|                                   |                     (21.0976 MB/s)|
+-----------------------------------------------------------------------+
+--------------------------------------+
|  Inner_Iter|   Time(sec)|    rms[Rho]|
+--------------------------------------+
|         860|  1.2106e-01|   -4.227329|
|         870|  1.2055e-01|   -4.178449|
|         880|  1.1998e-01|   -4.249205|
|         890|  1.1940e-01|   -4.246427|
|         900|  1.1899e-01|   -4.181142|
+-----------------------------------------------------------------------+
|        File Writing Summary       |              Filename             |
+-----------------------------------------------------------------------+
|SU2 binary restart                 |restart_flow_databladeVALIDATION_Blade_22.dat|
|                                   |                     (12427.4 MB/s)|
|Paraview                           |volume_flow_databladeVALIDATION_Blade_22.vtu|
|                                   |                     (1067.66 MB/s)|
|Paraview surface                   |surface_flowdatabladeVALIDATION_Blade_22.vtu|
|                                   |                     (97.9825 MB/s)|
|SU2 ASCII restart                  |restart_flow_databladeVALIDATION_Blade_22.csv|
|                                   |                     (21.3072 MB/s)|
|CSV file                           |surface_flowdatabladeVALIDATION_Blade_22.csv|
|                                   |                     (21.8119 MB/s)|
+-----------------------------------------------------------------------+
+--------------------------------------+
|  Inner_Iter|   Time(sec)|    rms[Rho]|
+--------------------------------------+
|         910|  1.2136e-01|   -4.247234|
|         920|  1.2075e-01|   -4.275104|
|         930|  1.2023e-01|   -4.260330|
|         940|  1.1975e-01|   -4.253149|
|         950|  1.1926e-01|   -4.299498|
+-----------------------------------------------------------------------+
|        File Writing Summary       |              Filename             |
+-----------------------------------------------------------------------+
|SU2 binary restart                 |restart_flow_databladeVALIDATION_Blade_22.dat|
|                                   |                     (13460.7 MB/s)|
|Paraview                           |volume_flow_databladeVALIDATION_Blade_22.vtu|
|                                   |                     (1175.62 MB/s)|
|Paraview surface                   |surface_flowdatabladeVALIDATION_Blade_22.vtu|
|                                   |                     (100.499 MB/s)|
|SU2 ASCII restart                  |restart_flow_databladeVALIDATION_Blade_22.csv|
|                                   |                     (21.7713 MB/s)|
|CSV file                           |surface_flowdatabladeVALIDATION_Blade_22.csv|
|                                   |                     (21.7762 MB/s)|
+-----------------------------------------------------------------------+
+--------------------------------------+
|  Inner_Iter|   Time(sec)|    rms[Rho]|
+--------------------------------------+
|         960|  1.2133e-01|   -4.329667|
|         970|  1.2081e-01|   -4.326857|
|         980|  1.2037e-01|   -4.276136|
|         990|  1.1986e-01|   -4.325390|
|        1000|  1.1934e-01|   -4.330566|
+-----------------------------------------------------------------------+
|        File Writing Summary       |              Filename             |
+-----------------------------------------------------------------------+
|SU2 binary restart                 |restart_flow_databladeVALIDATION_Blade_22.dat|
|                                   |                     (12919.2 MB/s)|
|Paraview                           |volume_flow_databladeVALIDATION_Blade_22.vtu|
|                                   |                      (1118.3 MB/s)|
|Paraview surface                   |surface_flowdatabladeVALIDATION_Blade_22.vtu|
|                                   |                     (101.969 MB/s)|
|SU2 ASCII restart                  |restart_flow_databladeVALIDATION_Blade_22.csv|
|                                   |                      (21.391 MB/s)|
|CSV file                           |surface_flowdatabladeVALIDATION_Blade_22.csv|
|                                   |                     (20.5385 MB/s)|
+-----------------------------------------------------------------------+
+--------------------------------------+
|  Inner_Iter|   Time(sec)|    rms[Rho]|
+--------------------------------------+
|        1010|  1.2143e-01|   -4.322044|
|        1020|  1.2099e-01|   -4.323233|
|        1030|  1.2045e-01|   -4.385153|
|        1040|  1.1998e-01|   -4.396734|
|        1050|  1.1955e-01|   -4.387886|
+-----------------------------------------------------------------------+
|        File Writing Summary       |              Filename             |
+-----------------------------------------------------------------------+
|SU2 binary restart                 |restart_flow_databladeVALIDATION_Blade_22.dat|
|                                   |                     (12837.6 MB/s)|
|Paraview                           |volume_flow_databladeVALIDATION_Blade_22.vtu|
|                                   |                     (650.446 MB/s)|
|Paraview surface                   |surface_flowdatabladeVALIDATION_Blade_22.vtu|
|                                   |                     (48.7141 MB/s)|
|SU2 ASCII restart                  |restart_flow_databladeVALIDATION_Blade_22.csv|
|                                   |                     (22.3663 MB/s)|
|CSV file                           |surface_flowdatabladeVALIDATION_Blade_22.csv|
|                                   |                     (22.0434 MB/s)|
+-----------------------------------------------------------------------+
+--------------------------------------+
|  Inner_Iter|   Time(sec)|    rms[Rho]|
+--------------------------------------+
|        1060|  1.2142e-01|   -4.442089|
|        1070|  1.2091e-01|   -4.462870|
|        1080|  1.2054e-01|   -4.431441|
|        1090|  1.2010e-01|   -4.476303|
|        1100|  1.1960e-01|   -4.503141|
+-----------------------------------------------------------------------+
|        File Writing Summary       |              Filename             |
+-----------------------------------------------------------------------+
|SU2 binary restart                 |restart_flow_databladeVALIDATION_Blade_22.dat|
|                                   |                     (12703.2 MB/s)|
|Paraview                           |volume_flow_databladeVALIDATION_Blade_22.vtu|
|                                   |                     (1078.93 MB/s)|
|Paraview surface                   |surface_flowdatabladeVALIDATION_Blade_22.vtu|
|                                   |                     (46.4288 MB/s)|
|SU2 ASCII restart                  |restart_flow_databladeVALIDATION_Blade_22.csv|
|                                   |                     (21.8033 MB/s)|
|CSV file                           |surface_flowdatabladeVALIDATION_Blade_22.csv|
|                                   |                     (21.8287 MB/s)|
+-----------------------------------------------------------------------+
+--------------------------------------+
|  Inner_Iter|   Time(sec)|    rms[Rho]|
+--------------------------------------+
|        1110|  1.2143e-01|   -4.482354|
|        1120|  1.2105e-01|   -4.413311|
|        1130|  1.2060e-01|   -4.517043|
|        1140|  1.2015e-01|   -4.542297|
|        1150|  1.1977e-01|   -4.524239|
+-----------------------------------------------------------------------+
|        File Writing Summary       |              Filename             |
+-----------------------------------------------------------------------+
|SU2 binary restart                 |restart_flow_databladeVALIDATION_Blade_22.dat|
|                                   |                     (13123.6 MB/s)|
|Paraview                           |volume_flow_databladeVALIDATION_Blade_22.vtu|
|                                   |                     (1114.07 MB/s)|
|Paraview surface                   |surface_flowdatabladeVALIDATION_Blade_22.vtu|
|                                   |                      (95.726 MB/s)|
|SU2 ASCII restart                  |restart_flow_databladeVALIDATION_Blade_22.csv|
|                                   |                     (21.5145 MB/s)|
|CSV file                           |surface_flowdatabladeVALIDATION_Blade_22.csv|
|                                   |                     (20.2176 MB/s)|
+-----------------------------------------------------------------------+
+--------------------------------------+
|  Inner_Iter|   Time(sec)|    rms[Rho]|
+--------------------------------------+
|        1160|  1.2159e-01|   -4.502677|
|        1170|  1.2113e-01|   -4.579278|
|        1180|  1.2069e-01|   -4.579964|
|        1190|  1.2035e-01|   -4.510917|
|        1200|  1.1996e-01|   -4.557465|
+-----------------------------------------------------------------------+
|        File Writing Summary       |              Filename             |
+-----------------------------------------------------------------------+
|SU2 binary restart                 |restart_flow_databladeVALIDATION_Blade_22.dat|
|                                   |                       (13272 MB/s)|
|Paraview                           |volume_flow_databladeVALIDATION_Blade_22.vtu|
|                                   |                     (1150.05 MB/s)|
|Paraview surface                   |surface_flowdatabladeVALIDATION_Blade_22.vtu|
|                                   |                     (104.529 MB/s)|
|SU2 ASCII restart                  |restart_flow_databladeVALIDATION_Blade_22.csv|
|                                   |                     (21.8388 MB/s)|
|CSV file                           |surface_flowdatabladeVALIDATION_Blade_22.csv|
|                                   |                     (21.9181 MB/s)|
+-----------------------------------------------------------------------+
+--------------------------------------+
|  Inner_Iter|   Time(sec)|    rms[Rho]|
+--------------------------------------+
|        1210|  1.2157e-01|   -4.582503|
|        1220|  1.2120e-01|   -4.564389|
|        1230|  1.2088e-01|   -4.497726|
|        1240|  1.2049e-01|   -4.581396|
|        1250|  1.2006e-01|   -4.602680|
+-----------------------------------------------------------------------+
|        File Writing Summary       |              Filename             |
+-----------------------------------------------------------------------+
|SU2 binary restart                 |restart_flow_databladeVALIDATION_Blade_22.dat|
|                                   |                       (13313 MB/s)|
|Paraview                           |volume_flow_databladeVALIDATION_Blade_22.vtu|
|                                   |                      (1246.5 MB/s)|
|Paraview surface                   |surface_flowdatabladeVALIDATION_Blade_22.vtu|
|                                   |                     (89.0997 MB/s)|
|SU2 ASCII restart                  |restart_flow_databladeVALIDATION_Blade_22.csv|
|                                   |                     (21.6705 MB/s)|
|CSV file                           |surface_flowdatabladeVALIDATION_Blade_22.csv|
|                                   |                     (21.6586 MB/s)|
+-----------------------------------------------------------------------+
+--------------------------------------+
|  Inner_Iter|   Time(sec)|    rms[Rho]|
+--------------------------------------+
|        1260|  1.2169e-01|   -4.583457|
|        1270|  1.2136e-01|   -4.563117|
|        1280|  1.2093e-01|   -4.665465|
|        1290|  1.2052e-01|   -4.698730|
|        1300|  1.2018e-01|   -4.666596|
+-----------------------------------------------------------------------+
|        File Writing Summary       |              Filename             |
+-----------------------------------------------------------------------+
|SU2 binary restart                 |restart_flow_databladeVALIDATION_Blade_22.dat|
|                                   |                     (12361.1 MB/s)|
|Paraview                           |volume_flow_databladeVALIDATION_Blade_22.vtu|
|                                   |                      (1160.9 MB/s)|
|Paraview surface                   |surface_flowdatabladeVALIDATION_Blade_22.vtu|
|                                   |                      (98.222 MB/s)|
|SU2 ASCII restart                  |restart_flow_databladeVALIDATION_Blade_22.csv|
|                                   |                     (21.7649 MB/s)|
|CSV file                           |surface_flowdatabladeVALIDATION_Blade_22.csv|
|                                   |                     (20.8218 MB/s)|
+-----------------------------------------------------------------------+
+--------------------------------------+
|  Inner_Iter|   Time(sec)|    rms[Rho]|
+--------------------------------------+
|        1310|  1.2178e-01|   -4.655877|
|        1320|  1.2138e-01|   -4.691061|
|        1330|  1.2102e-01|   -4.661508|
|        1340|  1.2071e-01|   -4.631389|
|        1350|  1.2031e-01|   -4.715806|
+-----------------------------------------------------------------------+
|        File Writing Summary       |              Filename             |
+-----------------------------------------------------------------------+
|SU2 binary restart                 |restart_flow_databladeVALIDATION_Blade_22.dat|
|                                   |                     (13219.6 MB/s)|
|Paraview                           |volume_flow_databladeVALIDATION_Blade_22.vtu|
|                                   |                     (1125.36 MB/s)|
|Paraview surface                   |surface_flowdatabladeVALIDATION_Blade_22.vtu|
|                                   |                     (69.3693 MB/s)|
|SU2 ASCII restart                  |restart_flow_databladeVALIDATION_Blade_22.csv|
|                                   |                     (20.8498 MB/s)|
|CSV file                           |surface_flowdatabladeVALIDATION_Blade_22.csv|
|                                   |                     (19.6351 MB/s)|
+-----------------------------------------------------------------------+
+--------------------------------------+
|  Inner_Iter|   Time(sec)|    rms[Rho]|
+--------------------------------------+
|        1360|  1.2193e-01|   -4.724447|
|        1370|  1.2172e-01|   -4.689126|
|        1380|  1.2148e-01|   -4.764086|
|        1390|  1.2162e-01|   -4.791045|
|        1400|  1.2144e-01|   -4.757225|
+-----------------------------------------------------------------------+
|        File Writing Summary       |              Filename             |
+-----------------------------------------------------------------------+
|SU2 binary restart                 |restart_flow_databladeVALIDATION_Blade_22.dat|
|                                   |                     (13365.2 MB/s)|
|Paraview                           |volume_flow_databladeVALIDATION_Blade_22.vtu|
|                                   |                      (840.31 MB/s)|
|Paraview surface                   |surface_flowdatabladeVALIDATION_Blade_22.vtu|
|                                   |                     (67.4706 MB/s)|
|SU2 ASCII restart                  |restart_flow_databladeVALIDATION_Blade_22.csv|
|                                   |                     (19.3387 MB/s)|
|CSV file                           |surface_flowdatabladeVALIDATION_Blade_22.csv|
|                                   |                     (19.4041 MB/s)|
+-----------------------------------------------------------------------+
+--------------------------------------+
|  Inner_Iter|   Time(sec)|    rms[Rho]|
+--------------------------------------+
|        1410|  1.2323e-01|   -4.731834|
|        1420|  1.2334e-01|   -4.810324|
|        1430|  1.2323e-01|   -4.764142|
|        1440|  1.2313e-01|   -4.771249|
|        1450|  1.2347e-01|   -4.779940|
+-----------------------------------------------------------------------+
|        File Writing Summary       |              Filename             |
+-----------------------------------------------------------------------+
|SU2 binary restart                 |restart_flow_databladeVALIDATION_Blade_22.dat|
|                                   |                      (4279.1 MB/s)|
|Paraview                           |volume_flow_databladeVALIDATION_Blade_22.vtu|
|                                   |                     (437.323 MB/s)|
|Paraview surface                   |surface_flowdatabladeVALIDATION_Blade_22.vtu|
|                                   |                     (70.5693 MB/s)|
|SU2 ASCII restart                  |restart_flow_databladeVALIDATION_Blade_22.csv|
|                                   |                     (20.0055 MB/s)|
|CSV file                           |surface_flowdatabladeVALIDATION_Blade_22.csv|
|                                   |                     (19.7802 MB/s)|
+-----------------------------------------------------------------------+
+--------------------------------------+
|  Inner_Iter|   Time(sec)|    rms[Rho]|
+--------------------------------------+
|        1460|  1.2512e-01|   -4.847315|
|        1470|  1.2487e-01|   -4.866795|
|        1480|  1.2496e-01|   -4.915010|
|        1490|  1.2473e-01|   -4.873431|
|        1500|  1.2449e-01|   -4.895804|
+-----------------------------------------------------------------------+
|        File Writing Summary       |              Filename             |
+-----------------------------------------------------------------------+
|SU2 binary restart                 |restart_flow_databladeVALIDATION_Blade_22.dat|
|                                   |                       (14371 MB/s)|
|Paraview                           |volume_flow_databladeVALIDATION_Blade_22.vtu|
|                                   |                     (1049.63 MB/s)|
|Paraview surface                   |surface_flowdatabladeVALIDATION_Blade_22.vtu|
|                                   |                     (37.8263 MB/s)|
|SU2 ASCII restart                  |restart_flow_databladeVALIDATION_Blade_22.csv|
|                                   |                     (20.1333 MB/s)|
|CSV file                           |surface_flowdatabladeVALIDATION_Blade_22.csv|
|                                   |                     (20.4334 MB/s)|
+-----------------------------------------------------------------------+
+--------------------------------------+
|  Inner_Iter|   Time(sec)|    rms[Rho]|
+--------------------------------------+
|        1510|  1.2624e-01|   -4.946711|
|        1520|  1.2603e-01|   -4.940687|
|        1530|  1.2578e-01|   -4.930971|
|        1540|  1.2553e-01|   -4.956433|
|        1550|  1.2560e-01|   -5.006611|
+-----------------------------------------------------------------------+
|        File Writing Summary       |              Filename             |
+-----------------------------------------------------------------------+
|SU2 binary restart                 |restart_flow_databladeVALIDATION_Blade_22.dat|
|                                   |                     (13673.4 MB/s)|
|Paraview                           |volume_flow_databladeVALIDATION_Blade_22.vtu|
|                                   |                     (995.447 MB/s)|
|Paraview surface                   |surface_flowdatabladeVALIDATION_Blade_22.vtu|
|                                   |                     (78.5041 MB/s)|
|SU2 ASCII restart                  |restart_flow_databladeVALIDATION_Blade_22.csv|
|                                   |                     (20.0788 MB/s)|
|CSV file                           |surface_flowdatabladeVALIDATION_Blade_22.csv|
|                                   |                     (19.4843 MB/s)|
+-----------------------------------------------------------------------+
+--------------------------------------+
|  Inner_Iter|   Time(sec)|    rms[Rho]|
+--------------------------------------+
|        1560|  1.2711e-01|   -4.984956|
|        1570|  1.2686e-01|   -4.942385|
|        1580|  1.2665e-01|   -5.017765|
|        1590|  1.2663e-01|   -5.013393|
|        1600|  1.2646e-01|   -4.941917|
+-----------------------------------------------------------------------+
|        File Writing Summary       |              Filename             |
+-----------------------------------------------------------------------+
|SU2 binary restart                 |restart_flow_databladeVALIDATION_Blade_22.dat|
|                                   |                     (12905.4 MB/s)|
|Paraview                           |volume_flow_databladeVALIDATION_Blade_22.vtu|
|                                   |                      (1032.4 MB/s)|
|Paraview surface                   |surface_flowdatabladeVALIDATION_Blade_22.vtu|
|                                   |                     (104.168 MB/s)|
|SU2 ASCII restart                  |restart_flow_databladeVALIDATION_Blade_22.csv|
|                                   |                     (19.9288 MB/s)|
|CSV file                           |surface_flowdatabladeVALIDATION_Blade_22.csv|
|                                   |                     (19.4685 MB/s)|
+-----------------------------------------------------------------------+
+--------------------------------------+
|  Inner_Iter|   Time(sec)|    rms[Rho]|
+--------------------------------------+
|        1610|  1.2791e-01|   -5.002709|
|        1620|  1.2792e-01|   -5.046503|
|        1630|  1.2771e-01|   -5.044407|
|        1640|  1.2744e-01|   -5.031650|
|        1650|  1.2750e-01|   -5.090290|
+-----------------------------------------------------------------------+
|        File Writing Summary       |              Filename             |
+-----------------------------------------------------------------------+
|SU2 binary restart                 |restart_flow_databladeVALIDATION_Blade_22.dat|
|                                   |                     (12572.5 MB/s)|
|Paraview                           |volume_flow_databladeVALIDATION_Blade_22.vtu|
|                                   |                     (900.788 MB/s)|
|Paraview surface                   |surface_flowdatabladeVALIDATION_Blade_22.vtu|
|                                   |                      (85.316 MB/s)|
|SU2 ASCII restart                  |restart_flow_databladeVALIDATION_Blade_22.csv|
|                                   |                     (20.2926 MB/s)|
|CSV file                           |surface_flowdatabladeVALIDATION_Blade_22.csv|
|                                   |                     (15.8902 MB/s)|
+-----------------------------------------------------------------------+
+--------------------------------------+
|  Inner_Iter|   Time(sec)|    rms[Rho]|
+--------------------------------------+
|        1660|  1.2889e-01|   -5.117963|
|        1670|  1.2860e-01|   -5.074020|
|        1680|  1.2878e-01|   -5.076807|
|        1690|  1.2842e-01|   -5.120768|
|        1700|  1.2818e-01|   -5.103593|
+-----------------------------------------------------------------------+
|        File Writing Summary       |              Filename             |
+-----------------------------------------------------------------------+
|SU2 binary restart                 |restart_flow_databladeVALIDATION_Blade_22.dat|
|                                   |                     (13971.3 MB/s)|
|Paraview                           |volume_flow_databladeVALIDATION_Blade_22.vtu|
|                                   |                     (960.959 MB/s)|
|Paraview surface                   |surface_flowdatabladeVALIDATION_Blade_22.vtu|
|                                   |                     (99.5976 MB/s)|
|SU2 ASCII restart                  |restart_flow_databladeVALIDATION_Blade_22.csv|
|                                   |                     (19.6871 MB/s)|
|CSV file                           |surface_flowdatabladeVALIDATION_Blade_22.csv|
|                                   |                     (21.3194 MB/s)|
+-----------------------------------------------------------------------+
+--------------------------------------+
|  Inner_Iter|   Time(sec)|    rms[Rho]|
+--------------------------------------+
|        1710|  1.2989e-01|   -5.038106|
|        1720|  1.2970e-01|   -5.129257|
|        1730|  1.2935e-01|   -5.143659|
|        1740|  1.2908e-01|   -5.111699|
|        1750|  1.2904e-01|   -5.131523|
+-----------------------------------------------------------------------+
|        File Writing Summary       |              Filename             |
+-----------------------------------------------------------------------+
|SU2 binary restart                 |restart_flow_databladeVALIDATION_Blade_22.dat|
|                                   |                     (14271.2 MB/s)|
|Paraview                           |volume_flow_databladeVALIDATION_Blade_22.vtu|
|                                   |                     (1121.33 MB/s)|
|Paraview surface                   |surface_flowdatabladeVALIDATION_Blade_22.vtu|
|                                   |                     (104.393 MB/s)|
|SU2 ASCII restart                  |restart_flow_databladeVALIDATION_Blade_22.csv|
|                                   |                     (21.6198 MB/s)|
|CSV file                           |surface_flowdatabladeVALIDATION_Blade_22.csv|
|                                   |                     (20.2491 MB/s)|
+-----------------------------------------------------------------------+
+--------------------------------------+
|  Inner_Iter|   Time(sec)|    rms[Rho]|
+--------------------------------------+
|        1760|  1.3013e-01|   -5.187140|
|        1770|  1.2980e-01|   -5.174655|
|        1780|  1.2952e-01|   -5.096820|
|        1790|  1.2918e-01|   -5.174417|
|        1800|  1.2895e-01|   -5.126023|
+-----------------------------------------------------------------------+
|        File Writing Summary       |              Filename             |
+-----------------------------------------------------------------------+
|SU2 binary restart                 |restart_flow_databladeVALIDATION_Blade_22.dat|
|                                   |                     (13044.1 MB/s)|
|Paraview                           |volume_flow_databladeVALIDATION_Blade_22.vtu|
|                                   |                     (986.511 MB/s)|
|Paraview surface                   |surface_flowdatabladeVALIDATION_Blade_22.vtu|
|                                   |                     (61.2344 MB/s)|
|SU2 ASCII restart                  |restart_flow_databladeVALIDATION_Blade_22.csv|
|                                   |                     (21.2639 MB/s)|
|CSV file                           |surface_flowdatabladeVALIDATION_Blade_22.csv|
|                                   |                     (20.6981 MB/s)|
+-----------------------------------------------------------------------+
+--------------------------------------+
|  Inner_Iter|   Time(sec)|    rms[Rho]|
+--------------------------------------+
|        1810|  1.3016e-01|   -5.166143|
|        1820|  1.2986e-01|   -5.241936|
|        1830|  1.2958e-01|   -5.171687|
|        1840|  1.2926e-01|   -5.252092|
|        1850|  1.2894e-01|   -5.246991|
+-----------------------------------------------------------------------+
|        File Writing Summary       |              Filename             |
+-----------------------------------------------------------------------+
|SU2 binary restart                 |restart_flow_databladeVALIDATION_Blade_22.dat|
|                                   |                     (12991.6 MB/s)|
|Paraview                           |volume_flow_databladeVALIDATION_Blade_22.vtu|
|                                   |                     (928.551 MB/s)|
|Paraview surface                   |surface_flowdatabladeVALIDATION_Blade_22.vtu|
|                                   |                     (91.8563 MB/s)|
|SU2 ASCII restart                  |restart_flow_databladeVALIDATION_Blade_22.csv|
|                                   |                     (21.0192 MB/s)|
|CSV file                           |surface_flowdatabladeVALIDATION_Blade_22.csv|
|                                   |                     (20.2048 MB/s)|
+-----------------------------------------------------------------------+
+--------------------------------------+
|  Inner_Iter|   Time(sec)|    rms[Rho]|
+--------------------------------------+
|        1860|  1.3010e-01|   -5.153146|
|        1870|  1.2978e-01|   -5.264705|
|        1880|  1.2945e-01|   -5.305868|
|        1890|  1.2916e-01|   -5.275328|
|        1900|  1.2888e-01|   -5.239600|
+-----------------------------------------------------------------------+
|        File Writing Summary       |              Filename             |
+-----------------------------------------------------------------------+
|SU2 binary restart                 |restart_flow_databladeVALIDATION_Blade_22.dat|
|                                   |                     (13267.1 MB/s)|
|Paraview                           |volume_flow_databladeVALIDATION_Blade_22.vtu|
|                                   |                     (1191.75 MB/s)|
|Paraview surface                   |surface_flowdatabladeVALIDATION_Blade_22.vtu|
|                                   |                     (95.8592 MB/s)|
|SU2 ASCII restart                  |restart_flow_databladeVALIDATION_Blade_22.csv|
|                                   |                     (21.9187 MB/s)|
|CSV file                           |surface_flowdatabladeVALIDATION_Blade_22.csv|
|                                   |                     (19.6694 MB/s)|
+-----------------------------------------------------------------------+
+--------------------------------------+
|  Inner_Iter|   Time(sec)|    rms[Rho]|
+--------------------------------------+
|        1910|  1.2988e-01|   -5.349573|
|        1920|  1.2956e-01|   -5.353689|
|        1930|  1.2932e-01|   -5.251571|
|        1940|  1.2902e-01|   -5.355721|
|        1950|  1.2870e-01|   -5.369709|
+-----------------------------------------------------------------------+
|        File Writing Summary       |              Filename             |
+-----------------------------------------------------------------------+
|SU2 binary restart                 |restart_flow_databladeVALIDATION_Blade_22.dat|
|                                   |                     (14198.4 MB/s)|
|Paraview                           |volume_flow_databladeVALIDATION_Blade_22.vtu|
|                                   |                     (1156.67 MB/s)|
|Paraview surface                   |surface_flowdatabladeVALIDATION_Blade_22.vtu|
|                                   |                     (101.999 MB/s)|
|SU2 ASCII restart                  |restart_flow_databladeVALIDATION_Blade_22.csv|
|                                   |                     (21.4793 MB/s)|
|CSV file                           |surface_flowdatabladeVALIDATION_Blade_22.csv|
|                                   |                     (19.3839 MB/s)|
+-----------------------------------------------------------------------+
+--------------------------------------+
|  Inner_Iter|   Time(sec)|    rms[Rho]|
+--------------------------------------+
|        1960|  1.2975e-01|   -5.336118|
|        1970|  1.2950e-01|   -5.312643|
|        1980|  1.2921e-01|   -5.395010|
|        1990|  1.2892e-01|   -5.413485|
|        2000|  1.2872e-01|   -5.338185|
+-----------------------------------------------------------------------+
|        File Writing Summary       |              Filename             |
+-----------------------------------------------------------------------+
|SU2 binary restart                 |restart_flow_databladeVALIDATION_Blade_22.dat|
|                                   |                     (12691.6 MB/s)|
|Paraview                           |volume_flow_databladeVALIDATION_Blade_22.vtu|
|                                   |                     (1113.71 MB/s)|
|Paraview surface                   |surface_flowdatabladeVALIDATION_Blade_22.vtu|
|                                   |                     (100.102 MB/s)|
|SU2 ASCII restart                  |restart_flow_databladeVALIDATION_Blade_22.csv|
|                                   |                     (21.8673 MB/s)|
|CSV file                           |surface_flowdatabladeVALIDATION_Blade_22.csv|
|                                   |                     (20.3246 MB/s)|
+-----------------------------------------------------------------------+
+--------------------------------------+
|  Inner_Iter|   Time(sec)|    rms[Rho]|
+--------------------------------------+
|        2010|  1.2969e-01|   -5.460200|
|        2020|  1.2938e-01|   -5.481796|
|        2030|  1.2911e-01|   -5.442367|
|        2040|  1.2887e-01|   -5.407238|
|        2050|  1.2867e-01|   -5.388248|
+-----------------------------------------------------------------------+
|        File Writing Summary       |              Filename             |
+-----------------------------------------------------------------------+
|SU2 binary restart                 |restart_flow_databladeVALIDATION_Blade_22.dat|
|                                   |                     (13039.4 MB/s)|
|Paraview                           |volume_flow_databladeVALIDATION_Blade_22.vtu|
|                                   |                     (1164.66 MB/s)|
|Paraview surface                   |surface_flowdatabladeVALIDATION_Blade_22.vtu|
|                                   |                     (106.014 MB/s)|
|SU2 ASCII restart                  |restart_flow_databladeVALIDATION_Blade_22.csv|
|                                   |                      (21.808 MB/s)|
|CSV file                           |surface_flowdatabladeVALIDATION_Blade_22.csv|
|                                   |                     (22.0349 MB/s)|
+-----------------------------------------------------------------------+
+--------------------------------------+
|  Inner_Iter|   Time(sec)|    rms[Rho]|
+--------------------------------------+
|        2060|  1.2959e-01|   -5.461013|
|        2070|  1.2933e-01|   -5.451524|
|        2080|  1.2911e-01|   -5.403000|
|        2090|  1.2884e-01|   -5.501625|
|        2100|  1.2854e-01|   -5.521403|
+-----------------------------------------------------------------------+
|        File Writing Summary       |              Filename             |
+-----------------------------------------------------------------------+
|SU2 binary restart                 |restart_flow_databladeVALIDATION_Blade_22.dat|
|                                   |                     (13297.3 MB/s)|
|Paraview                           |volume_flow_databladeVALIDATION_Blade_22.vtu|
|                                   |                     (1191.91 MB/s)|
|Paraview surface                   |surface_flowdatabladeVALIDATION_Blade_22.vtu|
|                                   |                     (95.5743 MB/s)|
|SU2 ASCII restart                  |restart_flow_databladeVALIDATION_Blade_22.csv|
|                                   |                     (21.3927 MB/s)|
|CSV file                           |surface_flowdatabladeVALIDATION_Blade_22.csv|
|                                   |                     (20.5971 MB/s)|
+-----------------------------------------------------------------------+
+--------------------------------------+
|  Inner_Iter|   Time(sec)|    rms[Rho]|
+--------------------------------------+
|        2110|  1.2949e-01|   -5.501917|
|        2120|  1.2926e-01|   -5.485422|
|        2130|  1.2897e-01|   -5.561831|
|        2140|  1.2870e-01|   -5.545772|
|        2150|  1.2847e-01|   -5.495843|
+-----------------------------------------------------------------------+
|        File Writing Summary       |              Filename             |
+-----------------------------------------------------------------------+
|SU2 binary restart                 |restart_flow_databladeVALIDATION_Blade_22.dat|
|                                   |                     (13956.2 MB/s)|
|Paraview                           |volume_flow_databladeVALIDATION_Blade_22.vtu|
|                                   |                     (1123.34 MB/s)|
|Paraview surface                   |surface_flowdatabladeVALIDATION_Blade_22.vtu|
|                                   |                     (96.6045 MB/s)|
|SU2 ASCII restart                  |restart_flow_databladeVALIDATION_Blade_22.csv|
|                                   |                     (21.8338 MB/s)|
|CSV file                           |surface_flowdatabladeVALIDATION_Blade_22.csv|
|                                   |                     (21.1977 MB/s)|
+-----------------------------------------------------------------------+
+--------------------------------------+
|  Inner_Iter|   Time(sec)|    rms[Rho]|
+--------------------------------------+
|        2160|  1.2936e-01|   -5.580052|
|        2170|  1.2907e-01|   -5.585635|
|        2180|  1.2881e-01|   -5.561845|
|        2190|  1.2858e-01|   -5.549228|
|        2200|  1.2830e-01|   -5.607018|
+-----------------------------------------------------------------------+
|        File Writing Summary       |              Filename             |
+-----------------------------------------------------------------------+
|SU2 binary restart                 |restart_flow_databladeVALIDATION_Blade_22.dat|
|                                   |                     (12516.8 MB/s)|
|Paraview                           |volume_flow_databladeVALIDATION_Blade_22.vtu|
|                                   |                     (1196.49 MB/s)|
|Paraview surface                   |surface_flowdatabladeVALIDATION_Blade_22.vtu|
|                                   |                     (99.4744 MB/s)|
|SU2 ASCII restart                  |restart_flow_databladeVALIDATION_Blade_22.csv|
|                                   |                     (21.8054 MB/s)|
|CSV file                           |surface_flowdatabladeVALIDATION_Blade_22.csv|
|                                   |                     (21.5966 MB/s)|
+-----------------------------------------------------------------------+
+--------------------------------------+
|  Inner_Iter|   Time(sec)|    rms[Rho]|
+--------------------------------------+
|        2210|  1.2916e-01|   -5.604553|
|        2220|  1.2892e-01|   -5.570300|
|        2230|  1.2869e-01|   -5.587446|
|        2240|  1.2844e-01|   -5.618129|
|        2250|  1.2819e-01|   -5.600939|
+-----------------------------------------------------------------------+
|        File Writing Summary       |              Filename             |
+-----------------------------------------------------------------------+
|SU2 binary restart                 |restart_flow_databladeVALIDATION_Blade_22.dat|
|                                   |                     (13424.7 MB/s)|
|Paraview                           |volume_flow_databladeVALIDATION_Blade_22.vtu|
|                                   |                     (1083.23 MB/s)|
|Paraview surface                   |surface_flowdatabladeVALIDATION_Blade_22.vtu|
|                                   |                     (107.844 MB/s)|
|SU2 ASCII restart                  |restart_flow_databladeVALIDATION_Blade_22.csv|
|                                   |                     (21.6454 MB/s)|
|CSV file                           |surface_flowdatabladeVALIDATION_Blade_22.csv|
|                                   |                      (18.397 MB/s)|
+-----------------------------------------------------------------------+
+--------------------------------------+
|  Inner_Iter|   Time(sec)|    rms[Rho]|
+--------------------------------------+
|        2260|  1.2911e-01|   -5.593121|
|        2270|  1.2883e-01|   -5.652438|
|        2280|  1.2856e-01|   -5.651778|
|        2290|  1.2832e-01|   -5.624022|
|        2300|  1.2810e-01|   -5.649688|
+-----------------------------------------------------------------------+
|        File Writing Summary       |              Filename             |
+-----------------------------------------------------------------------+
|SU2 binary restart                 |restart_flow_databladeVALIDATION_Blade_22.dat|
|                                   |                     (11979.5 MB/s)|
|Paraview                           |volume_flow_databladeVALIDATION_Blade_22.vtu|
|                                   |                     (1098.96 MB/s)|
|Paraview surface                   |surface_flowdatabladeVALIDATION_Blade_22.vtu|
|                                   |                     (93.3863 MB/s)|
|SU2 ASCII restart                  |restart_flow_databladeVALIDATION_Blade_22.csv|
|                                   |                     (21.9284 MB/s)|
|CSV file                           |surface_flowdatabladeVALIDATION_Blade_22.csv|
|                                   |                     (19.3684 MB/s)|
+-----------------------------------------------------------------------+
+--------------------------------------+
|  Inner_Iter|   Time(sec)|    rms[Rho]|
+--------------------------------------+
|        2310|  1.2892e-01|   -5.679118|
|        2320|  1.2867e-01|   -5.670869|
|        2330|  1.2845e-01|   -5.628041|
|        2340|  1.2821e-01|   -5.670894|
|        2350|  1.2796e-01|   -5.684562|
+-----------------------------------------------------------------------+
|        File Writing Summary       |              Filename             |
+-----------------------------------------------------------------------+
|SU2 binary restart                 |restart_flow_databladeVALIDATION_Blade_22.dat|
|                                   |                     (12942.3 MB/s)|
|Paraview                           |volume_flow_databladeVALIDATION_Blade_22.vtu|
[...]
|        File Writing Summary       |              Filename             |
+-----------------------------------------------------------------------+
|SU2 binary restart                 |restart_flow_databladeVALIDATION_Blade_22.dat|
|                                   |                     (13736.7 MB/s)|
|Paraview                           |volume_flow_databladeVALIDATION_Blade_22.vtu|
|                                   |                     (1156.42 MB/s)|
|Paraview surface                   |surface_flowdatabladeVALIDATION_Blade_22.vtu|
|                                   |                     (122.972 MB/s)|
|SU2 ASCII restart                  |restart_flow_databladeVALIDATION_Blade_22.csv|
|                                   |                     (21.7355 MB/s)|
|CSV file                           |surface_flowdatabladeVALIDATION_Blade_22.csv|
|                                   |                     (19.8605 MB/s)|
+-----------------------------------------------------------------------+
+--------------------------------------+
|  Inner_Iter|   Time(sec)|    rms[Rho]|
+--------------------------------------+
|        3660|  1.2789e-01|   -6.721293|
|        3670|  1.2772e-01|   -6.732780|
|        3680|  1.2761e-01|   -6.657176|
|        3690|  1.2745e-01|   -6.744746|
|        3700|  1.2730e-01|   -6.765006|
+-----------------------------------------------------------------------+
|        File Writing Summary       |              Filename             |
+-----------------------------------------------------------------------+
|SU2 binary restart                 |restart_flow_databladeVALIDATION_Blade_22.dat|
|                                   |                     (13687.9 MB/s)|
|Paraview                           |volume_flow_databladeVALIDATION_Blade_22.vtu|
|                                   |                     (1052.33 MB/s)|
|Paraview surface                   |surface_flowdatabladeVALIDATION_Blade_22.vtu|
|                                   |                     (107.999 MB/s)|
|SU2 ASCII restart                  |restart_flow_databladeVALIDATION_Blade_22.csv|
|                                   |                     (21.1568 MB/s)|
|CSV file                           |surface_flowdatabladeVALIDATION_Blade_22.csv|
|                                   |                     (20.9995 MB/s)|
+-----------------------------------------------------------------------+
+--------------------------------------+
|  Inner_Iter|   Time(sec)|    rms[Rho]|
+--------------------------------------+
|        3710|  1.2786e-01|   -6.738820|
|        3720|  1.2772e-01|   -6.713785|
|        3730|  1.2756e-01|   -6.796406|
|        3740|  1.2741e-01|   -6.795788|
|        3750|  1.2728e-01|   -6.728664|
+-----------------------------------------------------------------------+
|        File Writing Summary       |              Filename             |
+-----------------------------------------------------------------------+
|SU2 binary restart                 |restart_flow_databladeVALIDATION_Blade_22.dat|
|                                   |                     (13876.9 MB/s)|
|Paraview                           |volume_flow_databladeVALIDATION_Blade_22.vtu|
|                                   |                     (1156.89 MB/s)|
|Paraview surface                   |surface_flowdatabladeVALIDATION_Blade_22.vtu|
|                                   |                     (78.4351 MB/s)|
|SU2 ASCII restart                  |restart_flow_databladeVALIDATION_Blade_22.csv|
|                                   |                     (21.6633 MB/s)|
|CSV file                           |surface_flowdatabladeVALIDATION_Blade_22.csv|
|                                   |                      (21.771 MB/s)|
+-----------------------------------------------------------------------+
+--------------------------------------+
|  Inner_Iter|   Time(sec)|    rms[Rho]|
+--------------------------------------+
|        3760|  1.2781e-01|   -6.783714|
|        3770|  1.2765e-01|   -6.808056|
|        3780|  1.2750e-01|   -6.785680|
|        3790|  1.2738e-01|   -6.729311|
|        3800|  1.2722e-01|   -6.811655|
+-----------------------------------------------------------------------+
|        File Writing Summary       |              Filename             |
+-----------------------------------------------------------------------+
|SU2 binary restart                 |restart_flow_databladeVALIDATION_Blade_22.dat|
|                                   |                       (11172 MB/s)|
|Paraview                           |volume_flow_databladeVALIDATION_Blade_22.vtu|
|                                   |                     (1264.08 MB/s)|
|Paraview surface                   |surface_flowdatabladeVALIDATION_Blade_22.vtu|
|                                   |                     (126.203 MB/s)|
|SU2 ASCII restart                  |restart_flow_databladeVALIDATION_Blade_22.csv|
|                                   |                      (21.832 MB/s)|
|CSV file                           |surface_flowdatabladeVALIDATION_Blade_22.csv|
|                                   |                     (22.7193 MB/s)|
+-----------------------------------------------------------------------+
+--------------------------------------+
|  Inner_Iter|   Time(sec)|    rms[Rho]|
+--------------------------------------+
|        3810|  1.2773e-01|   -6.814405|
|        3820|  1.2759e-01|   -6.775397|
|        3830|  1.2745e-01|   -6.797964|
|        3840|  1.2730e-01|   -6.846224|
|        3850|  1.2715e-01|   -6.834294|
+-----------------------------------------------------------------------+
|        File Writing Summary       |              Filename             |
+-----------------------------------------------------------------------+
|SU2 binary restart                 |restart_flow_databladeVALIDATION_Blade_22.dat|
|                                   |                     (12034.5 MB/s)|
|Paraview                           |volume_flow_databladeVALIDATION_Blade_22.vtu|
|                                   |                     (1203.52 MB/s)|
|Paraview surface                   |surface_flowdatabladeVALIDATION_Blade_22.vtu|
|                                   |                     (101.343 MB/s)|
|SU2 ASCII restart                  |restart_flow_databladeVALIDATION_Blade_22.csv|
|                                   |                     (21.7318 MB/s)|
|CSV file                           |surface_flowdatabladeVALIDATION_Blade_22.csv|
|                                   |                      (21.046 MB/s)|
+-----------------------------------------------------------------------+
+--------------------------------------+
|  Inner_Iter|   Time(sec)|    rms[Rho]|
+--------------------------------------+
|        3860|  1.2768e-01|   -6.774933|
|        3870|  1.2753e-01|   -6.855549|
|        3880|  1.2739e-01|   -6.833797|
|        3890|  1.2726e-01|   -6.798766|
|        3900|  1.2713e-01|   -6.844732|
+-----------------------------------------------------------------------+
|        File Writing Summary       |              Filename             |
+-----------------------------------------------------------------------+
|SU2 binary restart                 |restart_flow_databladeVALIDATION_Blade_22.dat|
|                                   |                     (12999.1 MB/s)|
|Paraview                           |volume_flow_databladeVALIDATION_Blade_22.vtu|
|                                   |                     (1181.31 MB/s)|
|Paraview surface                   |surface_flowdatabladeVALIDATION_Blade_22.vtu|
|                                   |                     (132.516 MB/s)|
|SU2 ASCII restart                  |restart_flow_databladeVALIDATION_Blade_22.csv|
|                                   |                     (21.4251 MB/s)|
|CSV file                           |surface_flowdatabladeVALIDATION_Blade_22.csv|
|                                   |                     (22.1075 MB/s)|
+-----------------------------------------------------------------------+
+--------------------------------------+
|  Inner_Iter|   Time(sec)|    rms[Rho]|
+--------------------------------------+
|        3910|  1.2763e-01|   -6.859474|
|        3920|  1.2748e-01|   -6.853067|
|        3930|  1.2736e-01|   -6.802328|
|        3940|  1.2721e-01|   -6.871183|
|        3950|  1.2708e-01|   -6.864905|
+-----------------------------------------------------------------------+
|        File Writing Summary       |              Filename             |
+-----------------------------------------------------------------------+
|SU2 binary restart                 |restart_flow_databladeVALIDATION_Blade_22.dat|
|                                   |                     (13571.8 MB/s)|
|Paraview                           |volume_flow_databladeVALIDATION_Blade_22.vtu|
|                                   |                     (1136.23 MB/s)|
|Paraview surface                   |surface_flowdatabladeVALIDATION_Blade_22.vtu|
|                                   |                     (99.1063 MB/s)|
|SU2 ASCII restart                  |restart_flow_databladeVALIDATION_Blade_22.csv|
|                                   |                     (21.0771 MB/s)|
|CSV file                           |surface_flowdatabladeVALIDATION_Blade_22.csv|
|                                   |                     (19.3106 MB/s)|
+-----------------------------------------------------------------------+
+--------------------------------------+
|  Inner_Iter|   Time(sec)|    rms[Rho]|
+--------------------------------------+
|        3960|  1.2760e-01|   -6.841024|
|        3970|  1.2747e-01|   -6.862180|
|        3980|  1.2732e-01|   -6.909267|
|        3990|  1.2719e-01|   -6.902287|
|        4000|  1.2707e-01|   -6.875890|
+-----------------------------------------------------------------------+
|        File Writing Summary       |              Filename             |
+-----------------------------------------------------------------------+
|SU2 binary restart                 |restart_flow_databladeVALIDATION_Blade_22.dat|
|                                   |                       (13513 MB/s)|
|Paraview                           |volume_flow_databladeVALIDATION_Blade_22.vtu|
|                                   |                     (1045.35 MB/s)|
|Paraview surface                   |surface_flowdatabladeVALIDATION_Blade_22.vtu|
|                                   |                     (98.7208 MB/s)|
|SU2 ASCII restart                  |restart_flow_databladeVALIDATION_Blade_22.csv|
|                                   |                     (21.7023 MB/s)|
|CSV file                           |surface_flowdatabladeVALIDATION_Blade_22.csv|
|                                   |                     (20.2608 MB/s)|
+-----------------------------------------------------------------------+
+--------------------------------------+
|  Inner_Iter|   Time(sec)|    rms[Rho]|
+--------------------------------------+
|        4010|  1.2756e-01|   -6.926443|
|        4020|  1.2741e-01|   -6.943756|
|        4030|  1.2727e-01|   -6.931851|
|        4040|  1.2715e-01|   -6.872467|
|        4050|  1.2701e-01|   -6.939575|
+-----------------------------------------------------------------------+
|        File Writing Summary       |              Filename             |
+-----------------------------------------------------------------------+
|SU2 binary restart                 |restart_flow_databladeVALIDATION_Blade_22.dat|
|                                   |                     (12692.5 MB/s)|
|Paraview                           |volume_flow_databladeVALIDATION_Blade_22.vtu|
|                                   |                     (1166.89 MB/s)|
|Paraview surface                   |surface_flowdatabladeVALIDATION_Blade_22.vtu|
|                                   |                     (96.3843 MB/s)|
|SU2 ASCII restart                  |restart_flow_databladeVALIDATION_Blade_22.csv|
|                                   |                     (21.3808 MB/s)|
|CSV file                           |surface_flowdatabladeVALIDATION_Blade_22.csv|
|                                   |                     (22.0574 MB/s)|
+-----------------------------------------------------------------------+
+--------------------------------------+
|  Inner_Iter|   Time(sec)|    rms[Rho]|
+--------------------------------------+
|        4060|  1.2750e-01|   -6.938969|
|        4070|  1.2737e-01|   -6.923723|
|        4080|  1.2725e-01|   -6.902637|
|        4090|  1.2710e-01|   -6.968137|
|        4100|  1.2696e-01|   -6.972634|
+-----------------------------------------------------------------------+
|        File Writing Summary       |              Filename             |
+-----------------------------------------------------------------------+
|SU2 binary restart                 |restart_flow_databladeVALIDATION_Blade_22.dat|
|                                   |                     (12423.1 MB/s)|
|Paraview                           |volume_flow_databladeVALIDATION_Blade_22.vtu|
|                                   |                     (1174.58 MB/s)|
|Paraview surface                   |surface_flowdatabladeVALIDATION_Blade_22.vtu|
|                                   |                     (82.9187 MB/s)|
|SU2 ASCII restart                  |restart_flow_databladeVALIDATION_Blade_22.csv|
|                                   |                     (21.8243 MB/s)|
|CSV file                           |surface_flowdatabladeVALIDATION_Blade_22.csv|
|                                   |                      (21.021 MB/s)|
+-----------------------------------------------------------------------+
+--------------------------------------+
|  Inner_Iter|   Time(sec)|    rms[Rho]|
+--------------------------------------+
|        4110|  1.2745e-01|   -6.937512|
|        4120|  1.2732e-01|   -6.955943|
|        4130|  1.2718e-01|   -6.980252|
|        4140|  1.2705e-01|   -6.963483|
|        4150|  1.2694e-01|   -6.947256|
+-----------------------------------------------------------------------+
|        File Writing Summary       |              Filename             |
+-----------------------------------------------------------------------+
|SU2 binary restart                 |restart_flow_databladeVALIDATION_Blade_22.dat|
|                                   |                     (11792.8 MB/s)|
|Paraview                           |volume_flow_databladeVALIDATION_Blade_22.vtu|
|                                   |                     (1026.52 MB/s)|
|Paraview surface                   |surface_flowdatabladeVALIDATION_Blade_22.vtu|
|                                   |                     (106.107 MB/s)|
|SU2 ASCII restart                  |restart_flow_databladeVALIDATION_Blade_22.csv|
|                                   |                     (21.2791 MB/s)|
|CSV file                           |surface_flowdatabladeVALIDATION_Blade_22.csv|
|                                   |                     (21.2932 MB/s)|
+-----------------------------------------------------------------------+
+--------------------------------------+
|  Inner_Iter|   Time(sec)|    rms[Rho]|
+--------------------------------------+
|        4160|  1.2741e-01|   -6.985622|
|        4170|  1.2729e-01|   -6.959854|
|        4180|  1.2716e-01|   -6.937539|
|        4190|  1.2703e-01|   -6.988398|
|        4200|  1.2689e-01|   -6.988169|
+-----------------------------------------------------------------------+
|        File Writing Summary       |              Filename             |
+-----------------------------------------------------------------------+
|SU2 binary restart                 |restart_flow_databladeVALIDATION_Blade_22.dat|
|                                   |                     (14064.7 MB/s)|
|Paraview                           |volume_flow_databladeVALIDATION_Blade_22.vtu|
|                                   |                     (1138.09 MB/s)|
|Paraview surface                   |surface_flowdatabladeVALIDATION_Blade_22.vtu|
|                                   |                     (102.887 MB/s)|
|SU2 ASCII restart                  |restart_flow_databladeVALIDATION_Blade_22.csv|
|                                   |                     (21.9048 MB/s)|
|CSV file                           |surface_flowdatabladeVALIDATION_Blade_22.csv|
|                                   |                     (20.8644 MB/s)|
+-----------------------------------------------------------------------+
+--------------------------------------+
|  Inner_Iter|   Time(sec)|    rms[Rho]|
+--------------------------------------+
|        4210|  1.2735e-01|   -6.979177|
|        4214|  1.2730e-01|   -7.002400|

----------------------------- Solver Exit -------------------------------
All convergence criteria satisfied.
+-----------------------------------------------------------------------+
|      Convergence Field     |     Value    |   Criterion  |  Converged |
+-----------------------------------------------------------------------+
|                    rms[Rho]|       -7.0024|          < -7|         Yes|
+-----------------------------------------------------------------------+
-------------------------------------------------------------------------
+-----------------------------------------------------------------------+
|        File Writing Summary       |              Filename             |
+-----------------------------------------------------------------------+
|SU2 binary restart                 |restart_flow_databladeVALIDATION_Blade_22.dat|
|                                   |                     (12206.7 MB/s)|
|Paraview                           |volume_flow_databladeVALIDATION_Blade_22.vtu|
|                                   |                     (1086.33 MB/s)|
|Paraview surface                   |surface_flowdatabladeVALIDATION_Blade_22.vtu|
|                                   |                     (103.439 MB/s)|
|SU2 ASCII restart                  |restart_flow_databladeVALIDATION_Blade_22.csv|
|                                   |                     (21.4728 MB/s)|
|CSV file                           |surface_flowdatabladeVALIDATION_Blade_22.csv|
|                                   |                     (21.5971 MB/s)|
+-----------------------------------------------------------------------+

--------------------------- Finalizing Solver ---------------------------
Deleted CNumerics container.
Deleted CIntegration container.
Deleted CSolver container.
Deleted CIteration container.
Deleted CInterface container.
Deleted CGeometry container.
Deleted CFreeFormDefBox class.
Deleted CSurfaceMovement class.
Deleted CVolumetricMovement class.
Deleted CConfig container.
Deleted nInst container.
Deleted COutput class.
-------------------------------------------------------------------------


-------------------------- Performance Summary --------------------------
Simulation totals:
   Wall-clock time (hrs):    0.149893 |            Core-hrs:     1.79871
                   Cores:          12 |          DOFs/point:           5
             Points/core:     5703.83 |   Ghost points/core:     161.917
 Ghost/Owned Point Ratio:   0.0283873 | 

Preprocessing phase:
       Preproc. Time (s):    0.492303 |   Preproc. Time (%):   0.0912325

Compute phase:
        Compute Time (s):     536.562 |    Compute Time (%):     99.4344
         Iteration count:        4215 |         Avg. s/iter:    0.127298
     Core-s/iter/Mpoints:     21.7019 |           Mpoints/s:    0.552946

Output phase:
         Output Time (s):     2.55963 |     Output Time (%):    0.474345
            Output count:           1 |       Avg. s/output:     2.55963
 Restart Aggr. BW (MB/s): 1.07618e+06 |           MB/s/core:     89681.9
-------------------------------------------------------------------------


------------------------- Exit Success (SU2_CFD) ------------------------

