
-------------------------------------------------------------------------
|    ___ _   _ ___                                                      |
|   / __| | | |_  )   Release 8.0.1 "Harrier"                           |
|   \__ \ |_| |/ /                                                      |
|   |___/\___//___|   Suite (Computational Fluid Dynamics Code)         |
|                                                                       |
-------------------------------------------------------------------------
| SU2 Project Website: https://su2code.github.io                        |
|                                                                       |
| The SU2 Project is maintained by the SU2 Foundation                   |
| (http://su2foundation.org)                                            |
-------------------------------------------------------------------------
| Copyright 2012-2024, SU2 Contributors                                 |
|                                                                       |
| SU2 is free software; you can redistribute it and/or                  |
| modify it under the terms of the GNU Lesser General Public            |
| License as published by the Free Software Foundation; either          |
| version 2.1 of the License, or (at your option) any later version.    |
|                                                                       |
| SU2 is distributed in the hope that it will be useful,                |
| but WITHOUT ANY WARRANTY; without even the implied warranty of        |
| MERCHANTABILITY or FITNESS FOR A PARTICULAR PURPOSE. See the GNU      |
| Lesser General Public License for more details.                       |
|                                                                       |
| You should have received a copy of the GNU Lesser General Public      |
| License along with SU2. If not, see <http://www.gnu.org/licenses/>.   |
-------------------------------------------------------------------------

Parsing config file for zone 0

----------------- Physical Case Definition ( Zone 0 ) -------------------
Compressible RANS equations.
Turbulence model: Spalart-Allmaras-noft2-BCM
Hybrid RANS/LES: No Hybrid RANS/LES
Mach number: 0.667.
Angle of attack (AoA): -4 deg, and angle of sideslip (AoS): 0 deg.
Reynolds number: 600000. Reference length 1.00205.
No restart solution, use the values at infinity (freestream).
Dimensional simulation.
The reference area will be computed using y(2D) or z(3D) projection.
The semi-span will be computed using the max y(3D) value.
The reference length is 1.00205 m.
Reference origin for moment evaluation is (0, 0, 0).
Surface(s) where the force coefficients are evaluated: blade1.

Surface(s) plotted in the output file: blade1.
Surface(s) to be analyzed in detail: inlet, outlet, blade1.
Input mesh file name: cascade2D_databladeVALIDATION_Blade_25.su2

--------------- Space Numerical Integration ( Zone 0 ) ------------------
Jameson-Schmidt-Turkel scheme (2nd order in space) for the flow inviscid terms.
JST viscous coefficients (2nd & 4th): 0.5, 0.02.
The method includes a grid stretching correction (p = 0.3).
Scalar upwind solver for the turbulence model.
First order integration in space.
Average of gradients with correction (viscous flow terms).
Average of gradients with correction (viscous turbulence terms).
Gradient for upwind reconstruction: inverse-distance weighted Least-Squares.
Gradient for viscous and source terms: inverse-distance weighted Least-Squares.

--------------- Time Numerical Integration  ( Zone 0 ) ------------------
Local time stepping (steady state simulation).
Euler implicit method for the flow equations.
FGMRES is used for solving the linear system.
Using a LU-SGS preconditioning.
Convergence criteria of the linear solver: 0.0001.
Max number of linear iterations: 10.
V Multigrid Cycle, with 3 multigrid levels.
Damping factor for the residual restriction: 0.75.
Damping factor for the correction prolongation: 0.75.
CFL adaptation. Factor down: 0.1, factor up: 1.2,
                lower limit: 0.1, upper limit: 100,
                acceptable linear residual: 0.001.
+-------------------------------------------+
|  MG Level| Presmooth|PostSmooth|CorrectSmo|
+-------------------------------------------+
|         0|         1|         0|         1|
|         1|         2|         2|         2|
|         2|         3|         3|         3|
|         3|         3|         0|         0|
+-------------------------------------------+
Courant-Friedrichs-Lewy number:       12
Euler implicit time integration for the turbulence model.

------------------ Convergence Criteria  ( Zone 0 ) ---------------------
Maximum number of solver subiterations: 7000.
Begin convergence monitoring at iteration 500.
Residual minimum value: 1e-7.
Cauchy series min. value: 1e-10.
Number of Cauchy elements: 100.
Begin windowed time average at iteration 0.

-------------------- Output Information ( Zone 0 ) ----------------------
File writing frequency: 
+------------------------------------+
|                     File| Frequency|
+------------------------------------+
|                  RESTART|        50|
|                 PARAVIEW|        50|
|         SURFACE_PARAVIEW|        50|
|                      CSV|        50|
|              SURFACE_CSV|        50|
+------------------------------------+
Writing the convergence history file every 1 inner iterations.
Writing the screen convergence history every 10 inner iterations.
The tabular file format is CSV (.csv).
Convergence history file name: history_databladeVALIDATION_Blade_25.
Forces breakdown file name: forces_breakdown.dat.
Surface file name: surface_flowdatabladeVALIDATION_Blade_25.
Volume file name: volume_flow_databladeVALIDATION_Blade_25.
Restart file name: restart_flow_databladeVALIDATION_Blade_25.dat.

------------- Config File Boundary Information ( Zone 0 ) ---------------
+-----------------------------------------------------------------------+
|                        Marker Type|                        Marker Name|
+-----------------------------------------------------------------------+
|                  Periodic boundary|               symmetricWallsBOTTOM|
|                                   |                  symmetricWallsTOP|
+-----------------------------------------------------------------------+
|                     Inlet boundary|                              inlet|
+-----------------------------------------------------------------------+
|                    Outlet boundary|                             outlet|
+-----------------------------------------------------------------------+
|                     Heat flux wall|                             blade1|
|                                   |                             blade2|
+-----------------------------------------------------------------------+

-------------------- Output Preprocessing ( Zone 0 ) --------------------
  Info: Ignoring the following screen output fields:
  LINSOL_ITER_TRANS, LINSOL_RESIDUAL_TRANS
Screen output fields: INNER_ITER, WALL_TIME, RMS_DENSITY
  Info: Ignoring the following history output groups:
  RMS_TKE, RMS_DISSIPATION
History output group(s): INNER_ITER, WALL_TIME, RMS_DENSITY, RMS_MOMENTUM-X, RMS_ENERGY, LINSOL, CFL_NUMBER, FLOW_COEFF_SURF, AERO_COEFF_SURF
Convergence field(s): RMS_DENSITY
Warning: No (valid) fields chosen for time convergence monitoring. Time convergence monitoring inactive.
Volume output fields: COORDINATES, SOLUTION, PRIMITIVE, RESIDUAL, TIMESTEP, MESH_QUALITY, VORTEX_IDENTIFICATION

------------------- Geometry Preprocessing ( Zone 0 ) -------------------
Two dimensional problem.
62684 grid points before partitioning.
95110 volume elements before partitioning.
5 surface markers.
25 boundary elements in index 0 (Marker = inlet).
279 boundary elements in index 1 (Marker = symmetricWallsBOTTOM).
279 boundary elements in index 2 (Marker = symmetricWallsTOP).
25 boundary elements in index 3 (Marker = outlet).
1186 boundary elements in index 4 (Marker = blade1).
Executing the partitioning functions.
Building the graph adjacency structure.
Calling ParMETIS... graph partitioning complete (1608 edge cuts).
Distributing ParMETIS coloring.
Rebalancing vertices.
Rebalancing volume element connectivity.
Rebalancing markers and surface elements.
64654 vertices including ghost points. 
96708 interior elements including halo cells. 
67896 triangles.
28812 quadrilaterals.
Establishing MPI communication patterns.
Setting point connectivity.
Renumbering points (Reverse Cuthill McKee Ordering).
Recomputing point connectivity.
Setting element connectivity.
Checking the numerical grid orientation.
All volume elements are correctly orientend.
There has been a re-orientation of 909 LINE surface elements.
Identifying edges and vertices.
Setting the control volume structure.
Area of the computational grid: 3.31742.
Searching for the closest normal neighbors to the surfaces.
Storing a mapping from global to local point index.
Compute the surface curvature.
Max K: 123.512. Mean K: 4.41357. Standard deviation K: 14.2165.
Checking for periodicity.
WARNING: Periodicity has been detected. Disabling multigrid. 
Computing mesh quality statistics for the dual control volumes.
+--------------------------------------------------------------+
|           Mesh Quality Metric|        Minimum|        Maximum|
+--------------------------------------------------------------+
|    Orthogonality Angle (deg.)|        55.2095|             90|
|     CV Face Area Aspect Ratio|        1.00059|        257.975|
|           CV Sub-Volume Ratio|              1|        19.6137|
+--------------------------------------------------------------+
Finding max control volume width.
Communicating number of neighbors.
Reference length = 1.01479 m.
Wetted area = 2.70938 m.
Area projection in the x-plane = 0.772856 m, y-plane = 1.01479 m.
Max. coordinate in the x-direction = 1.01469 m, y-direction = 0.65125 m.
Min. coordinate in the x-direction = -0.000100913 m, y-direction = -0.121613 m.
Matching the periodic boundary points for marker pair 1.
 Matched 560 points with a max distance of: 6.91986e-14.
Computing wall distances.

-------------------- Solver Preprocessing ( Zone 0 ) --------------------
Viscous flow: Computing pressure using the ideal gas law
based on the free-stream temperature and a density computed
from the Reynolds number.
Force coefficients computed using free-stream values.

-- Models:
+------------------------------------------------------------------------------+
|          Viscosity Model|        Conductivity Model|              Fluid Model|
+------------------------------------------------------------------------------+
|               SUTHERLAND|          CONSTANT_PRANDTL|                IDEAL_GAS|
+------------------------------------------------------------------------------+
-- Fluid properties:
+------------------------------------------------------------------------------+
|                  Name|    Dim. value|    Ref. value|      Unit|Non-dim. value|
+------------------------------------------------------------------------------+
|        Ref. Viscosity|     1.716e-05|             1|   N.s/m^2|     1.716e-05|
|      Sutherland Temp.|        273.15|             1|         K|        273.15|
|     Sutherland Const.|         110.4|             1|         K|         110.4|
+------------------------------------------------------------------------------+
|        Prandtl (Lam.)|             -|             -|         -|          0.72|
|       Prandtl (Turb.)|             -|             -|         -|           0.9|
+------------------------------------------------------------------------------+
|          Gas Constant|       287.058|             1|  N.m/kg.K|       287.058|
|      Spec. Heat Ratio|             -|             -|         -|           1.4|
+------------------------------------------------------------------------------+
-- Initial and free-stream conditions:
+------------------------------------------------------------------------------+
|                  Name|    Dim. value|    Ref. value|      Unit|Non-dim. value|
+------------------------------------------------------------------------------+
|       Static Pressure|       4109.86|             1|        Pa|       4109.86|
|               Density|      0.047724|             1|    kg/m^3|      0.047724|
|           Temperature|           300|             1|         K|           300|
|          Total Energy|        242112|             1|   m^2/s^2|        242112|
|            Velocity-X|       231.034|             1|       m/s|       231.034|
|            Velocity-Y|      -16.1555|             1|       m/s|      -16.1555|
|    Velocity Magnitude|       231.598|             1|       m/s|       231.598|
+------------------------------------------------------------------------------+
|             Viscosity|   1.84592e-05|             1|   N.s/m^2|   1.84592e-05|
|          Conductivity|             -|             1|   W/m^2.K|             -|
|     Turb. Kin. Energy|       98.5594|             1|   m^2/s^2|       98.5594|
|     Spec. Dissipation|   2.54814e+06|             1|       1/s|   2.54814e+06|
+------------------------------------------------------------------------------+
|           Mach Number|             -|             -|         -|         0.667|
|       Reynolds Number|             -|             -|         -|        600000|
+------------------------------------------------------------------------------+
Initialize Jacobian structure (Navier-Stokes). MG level: 0.
Initialize Jacobian structure (SA model).

------------------- Numerics Preprocessing ( Zone 0 ) -------------------

----------------- Integration Preprocessing ( Zone 0 ) ------------------

------------------- Iteration Preprocessing ( Zone 0 ) ------------------
Euler/Navier-Stokes/RANS fluid iteration.

------------------------------ Begin Solver -----------------------------

Simulation Run using the Single-zone Driver
WARNING: SU2 was not compiled for an AVX-capable architecture. Performance could be better,
         see https://su2code.github.io/docs_v7/Build-SU2-Linux-MacOS/#compiler-optimizations
+--------------------------------------+
|  Inner_Iter|   Time(sec)|    rms[Rho]|
+--------------------------------------+
|           0|  7.8238e-02|   -2.623157|
|          10|  6.6757e-02|   -3.231478|
|          20|  6.8057e-02|   -3.077259|
|          30|  6.7953e-02|   -3.065820|
|          40|  6.5802e-02|   -3.004755|
|          50|  6.6707e-02|   -2.919578|
+-----------------------------------------------------------------------+
|        File Writing Summary       |              Filename             |
+-----------------------------------------------------------------------+
|SU2 binary restart                 |restart_flow_databladeVALIDATION_Blade_25.dat|
|                                   |                     (10668.6 MB/s)|
|Paraview                           |volume_flow_databladeVALIDATION_Blade_25.vtu|
|                                   |                     (945.493 MB/s)|
|Paraview surface                   |surface_flowdatabladeVALIDATION_Blade_25.vtu|
|                                   |                     (83.2824 MB/s)|
|SU2 ASCII restart                  |restart_flow_databladeVALIDATION_Blade_25.csv|
|                                   |                     (21.1243 MB/s)|
|CSV file                           |surface_flowdatabladeVALIDATION_Blade_25.csv|
|                                   |                      (19.323 MB/s)|
+-----------------------------------------------------------------------+
+--------------------------------------+
|  Inner_Iter|   Time(sec)|    rms[Rho]|
+--------------------------------------+
|          60|  1.0772e-01|   -3.008249|
|          70|  1.0156e-01|   -3.088341|
|          80|  9.7092e-02|   -3.131248|
|          90|  9.5294e-02|   -3.076187|
|         100|  9.2273e-02|   -3.111770|
+-----------------------------------------------------------------------+
|        File Writing Summary       |              Filename             |
+-----------------------------------------------------------------------+
|SU2 binary restart                 |restart_flow_databladeVALIDATION_Blade_25.dat|
|                                   |                     (14758.4 MB/s)|
|Paraview                           |volume_flow_databladeVALIDATION_Blade_25.vtu|
|                                   |                     (1033.18 MB/s)|
|Paraview surface                   |surface_flowdatabladeVALIDATION_Blade_25.vtu|
|                                   |                     (98.8787 MB/s)|
|SU2 ASCII restart                  |restart_flow_databladeVALIDATION_Blade_25.csv|
|                                   |                     (21.7014 MB/s)|
|CSV file                           |surface_flowdatabladeVALIDATION_Blade_25.csv|
|                                   |                     (20.9515 MB/s)|
+-----------------------------------------------------------------------+
+--------------------------------------+
|  Inner_Iter|   Time(sec)|    rms[Rho]|
+--------------------------------------+
|         110|  1.1143e-01|   -3.102025|
|         120|  1.0786e-01|   -3.158704|
|         130|  1.0428e-01|   -3.257900|
|         140|  1.0154e-01|   -3.259954|
|         150|  9.9282e-02|   -3.141001|
+-----------------------------------------------------------------------+
|        File Writing Summary       |              Filename             |
+-----------------------------------------------------------------------+
|SU2 binary restart                 |restart_flow_databladeVALIDATION_Blade_25.dat|
|                                   |                     (12540.2 MB/s)|
|Paraview                           |volume_flow_databladeVALIDATION_Blade_25.vtu|
|                                   |                     (1107.73 MB/s)|
|Paraview surface                   |surface_flowdatabladeVALIDATION_Blade_25.vtu|
|                                   |                     (97.5149 MB/s)|
|SU2 ASCII restart                  |restart_flow_databladeVALIDATION_Blade_25.csv|
|                                   |                     (21.9632 MB/s)|
|CSV file                           |surface_flowdatabladeVALIDATION_Blade_25.csv|
|                                   |                      (20.184 MB/s)|
+-----------------------------------------------------------------------+
+--------------------------------------+
|  Inner_Iter|   Time(sec)|    rms[Rho]|
+--------------------------------------+
|         160|  1.1195e-01|   -3.141449|
|         170|  1.0880e-01|   -3.116367|
|         180|  1.0652e-01|   -3.052165|
|         190|  1.0463e-01|   -3.064802|
|         200|  1.0273e-01|   -3.117954|
+-----------------------------------------------------------------------+
|        File Writing Summary       |              Filename             |
+-----------------------------------------------------------------------+
|SU2 binary restart                 |restart_flow_databladeVALIDATION_Blade_25.dat|
|                                   |                     (12445.1 MB/s)|
|Paraview                           |volume_flow_databladeVALIDATION_Blade_25.vtu|
|                                   |                     (1120.13 MB/s)|
|Paraview surface                   |surface_flowdatabladeVALIDATION_Blade_25.vtu|
|                                   |                     (95.0317 MB/s)|
|SU2 ASCII restart                  |restart_flow_databladeVALIDATION_Blade_25.csv|
|                                   |                     (21.8794 MB/s)|
|CSV file                           |surface_flowdatabladeVALIDATION_Blade_25.csv|
|                                   |                      (20.847 MB/s)|
+-----------------------------------------------------------------------+
+--------------------------------------+
|  Inner_Iter|   Time(sec)|    rms[Rho]|
+--------------------------------------+
|         210|  1.1217e-01|   -3.158025|
|         220|  1.1049e-01|   -3.168630|
|         230|  1.0844e-01|   -3.247784|
|         240|  1.0660e-01|   -3.313811|
|         250|  1.0475e-01|   -3.326617|
+-----------------------------------------------------------------------+
|        File Writing Summary       |              Filename             |
+-----------------------------------------------------------------------+
|SU2 binary restart                 |restart_flow_databladeVALIDATION_Blade_25.dat|
|                                   |                     (13518.8 MB/s)|
|Paraview                           |volume_flow_databladeVALIDATION_Blade_25.vtu|
|                                   |                     (1092.23 MB/s)|
|Paraview surface                   |surface_flowdatabladeVALIDATION_Blade_25.vtu|
|                                   |                      (98.511 MB/s)|
|SU2 ASCII restart                  |restart_flow_databladeVALIDATION_Blade_25.csv|
|                                   |                     (21.1748 MB/s)|
|CSV file                           |surface_flowdatabladeVALIDATION_Blade_25.csv|
|                                   |                     (21.8239 MB/s)|
+-----------------------------------------------------------------------+
+--------------------------------------+
|  Inner_Iter|   Time(sec)|    rms[Rho]|
+--------------------------------------+
|         260|  1.1236e-01|   -3.311908|
|         270|  1.1058e-01|   -3.332178|
|         280|  1.0865e-01|   -3.364213|
|         290|  1.0727e-01|   -3.340733|
|         300|  1.0591e-01|   -3.353671|
+-----------------------------------------------------------------------+
|        File Writing Summary       |              Filename             |
+-----------------------------------------------------------------------+
|SU2 binary restart                 |restart_flow_databladeVALIDATION_Blade_25.dat|
|                                   |                     (12255.4 MB/s)|
|Paraview                           |volume_flow_databladeVALIDATION_Blade_25.vtu|
|                                   |                     (856.189 MB/s)|
|Paraview surface                   |surface_flowdatabladeVALIDATION_Blade_25.vtu|
|                                   |                     (88.6052 MB/s)|
|SU2 ASCII restart                  |restart_flow_databladeVALIDATION_Blade_25.csv|
|                                   |                     (21.6481 MB/s)|
|CSV file                           |surface_flowdatabladeVALIDATION_Blade_25.csv|
|                                   |                      (21.645 MB/s)|
+-----------------------------------------------------------------------+
+--------------------------------------+
|  Inner_Iter|   Time(sec)|    rms[Rho]|
+--------------------------------------+
|         310|  1.1195e-01|   -3.391225|
|         320|  1.1104e-01|   -3.345124|
|         330|  1.1002e-01|   -3.440608|
|         340|  1.0887e-01|   -3.412953|
|         350|  1.0772e-01|   -3.422336|
+-----------------------------------------------------------------------+
|        File Writing Summary       |              Filename             |
+-----------------------------------------------------------------------+
|SU2 binary restart                 |restart_flow_databladeVALIDATION_Blade_25.dat|
|                                   |                      (6728.1 MB/s)|
|Paraview                           |volume_flow_databladeVALIDATION_Blade_25.vtu|
|                                   |                     (1032.69 MB/s)|
|Paraview surface                   |surface_flowdatabladeVALIDATION_Blade_25.vtu|
|                                   |                     (129.435 MB/s)|
|SU2 ASCII restart                  |restart_flow_databladeVALIDATION_Blade_25.csv|
|                                   |                     (21.4989 MB/s)|
|CSV file                           |surface_flowdatabladeVALIDATION_Blade_25.csv|
|                                   |                     (20.1291 MB/s)|
+-----------------------------------------------------------------------+
+--------------------------------------+
|  Inner_Iter|   Time(sec)|    rms[Rho]|
+--------------------------------------+
|         360|  1.1286e-01|   -3.466454|
|         370|  1.1142e-01|   -3.527565|
|         380|  1.1034e-01|   -3.468397|
|         390|  1.0925e-01|   -3.560571|
|         400|  1.0802e-01|   -3.621221|
+-----------------------------------------------------------------------+
|        File Writing Summary       |              Filename             |
+-----------------------------------------------------------------------+
|SU2 binary restart                 |restart_flow_databladeVALIDATION_Blade_25.dat|
|                                   |                     (12144.8 MB/s)|
|Paraview                           |volume_flow_databladeVALIDATION_Blade_25.vtu|
|                                   |                     (1098.45 MB/s)|
|Paraview surface                   |surface_flowdatabladeVALIDATION_Blade_25.vtu|
|                                   |                     (82.2847 MB/s)|
|SU2 ASCII restart                  |restart_flow_databladeVALIDATION_Blade_25.csv|
|                                   |                      (21.768 MB/s)|
|CSV file                           |surface_flowdatabladeVALIDATION_Blade_25.csv|
|                                   |                     (19.3254 MB/s)|
+-----------------------------------------------------------------------+
+--------------------------------------+
|  Inner_Iter|   Time(sec)|    rms[Rho]|
+--------------------------------------+
|         410|  1.1262e-01|   -3.680256|
|         420|  1.1160e-01|   -3.618112|
|         430|  1.1055e-01|   -3.649859|
|         440|  1.0943e-01|   -3.670070|
|         450|  1.0854e-01|   -3.622124|
+-----------------------------------------------------------------------+
|        File Writing Summary       |              Filename             |
+-----------------------------------------------------------------------+
|SU2 binary restart                 |restart_flow_databladeVALIDATION_Blade_25.dat|
|                                   |                       (12527 MB/s)|
|Paraview                           |volume_flow_databladeVALIDATION_Blade_25.vtu|
|                                   |                     (1117.78 MB/s)|
|Paraview surface                   |surface_flowdatabladeVALIDATION_Blade_25.vtu|
|                                   |                     (97.6887 MB/s)|
|SU2 ASCII restart                  |restart_flow_databladeVALIDATION_Blade_25.csv|
|                                   |                     (20.7679 MB/s)|
|CSV file                           |surface_flowdatabladeVALIDATION_Blade_25.csv|
|                                   |                     (20.2675 MB/s)|
+-----------------------------------------------------------------------+
+--------------------------------------+
|  Inner_Iter|   Time(sec)|    rms[Rho]|
+--------------------------------------+
|         460|  1.1342e-01|   -3.628519|
|         470|  1.1254e-01|   -3.686181|
|         480|  1.1184e-01|   -3.724843|
|         490|  1.1116e-01|   -3.706432|
|         500|  1.1024e-01|   -3.791624|
+-----------------------------------------------------------------------+
|        File Writing Summary       |              Filename             |
+-----------------------------------------------------------------------+
|SU2 binary restart                 |restart_flow_databladeVALIDATION_Blade_25.dat|
|                                   |                     (812.108 MB/s)|
|Paraview                           |volume_flow_databladeVALIDATION_Blade_25.vtu|
|                                   |                     (969.569 MB/s)|
|Paraview surface                   |surface_flowdatabladeVALIDATION_Blade_25.vtu|
|                                   |                     (93.4189 MB/s)|
|SU2 ASCII restart                  |restart_flow_databladeVALIDATION_Blade_25.csv|
|                                   |                     (20.8751 MB/s)|
|CSV file                           |surface_flowdatabladeVALIDATION_Blade_25.csv|
|                                   |                        (20.3 MB/s)|
+-----------------------------------------------------------------------+
+--------------------------------------+
|  Inner_Iter|   Time(sec)|    rms[Rho]|
+--------------------------------------+
|         510|  1.1416e-01|   -3.838136|
|         520|  1.1332e-01|   -3.844663|
|         530|  1.1252e-01|   -3.903917|
|         540|  1.1159e-01|   -3.956158|
|         550|  1.1078e-01|   -3.947197|
+-----------------------------------------------------------------------+
|        File Writing Summary       |              Filename             |
+-----------------------------------------------------------------------+
|SU2 binary restart                 |restart_flow_databladeVALIDATION_Blade_25.dat|
|                                   |                     (13375.8 MB/s)|
|Paraview                           |volume_flow_databladeVALIDATION_Blade_25.vtu|
|                                   |                     (167.424 MB/s)|
|Paraview surface                   |surface_flowdatabladeVALIDATION_Blade_25.vtu|
|                                   |                     (21.5608 MB/s)|
|SU2 ASCII restart                  |restart_flow_databladeVALIDATION_Blade_25.csv|
|                                   |                     (20.8457 MB/s)|
|CSV file                           |surface_flowdatabladeVALIDATION_Blade_25.csv|
|                                   |                     (19.8089 MB/s)|
+-----------------------------------------------------------------------+
+--------------------------------------+
|  Inner_Iter|   Time(sec)|    rms[Rho]|
+--------------------------------------+
|         560|  1.1463e-01|   -3.899329|
|         570|  1.1388e-01|   -3.954719|
|         580|  1.1306e-01|   -3.986062|
|         590|  1.1265e-01|   -3.957911|
|         600|  1.1218e-01|   -4.008616|
+-----------------------------------------------------------------------+
|        File Writing Summary       |              Filename             |
+-----------------------------------------------------------------------+
|SU2 binary restart                 |restart_flow_databladeVALIDATION_Blade_25.dat|
|                                   |                     (14172.4 MB/s)|
|Paraview                           |volume_flow_databladeVALIDATION_Blade_25.vtu|
|                                   |                     (964.976 MB/s)|
|Paraview surface                   |surface_flowdatabladeVALIDATION_Blade_25.vtu|
|                                   |                     (100.742 MB/s)|
|SU2 ASCII restart                  |restart_flow_databladeVALIDATION_Blade_25.csv|
|                                   |                     (20.9181 MB/s)|
|CSV file                           |surface_flowdatabladeVALIDATION_Blade_25.csv|
|                                   |                      (19.185 MB/s)|
+-----------------------------------------------------------------------+
+--------------------------------------+
|  Inner_Iter|   Time(sec)|    rms[Rho]|
+--------------------------------------+
|         610|  1.1572e-01|   -4.033081|
|         620|  1.1500e-01|   -4.119006|
|         630|  1.1435e-01|   -4.147435|
|         640|  1.1366e-01|   -4.212653|
|         650|  1.1302e-01|   -4.258681|
+-----------------------------------------------------------------------+
|        File Writing Summary       |              Filename             |
+-----------------------------------------------------------------------+
|SU2 binary restart                 |restart_flow_databladeVALIDATION_Blade_25.dat|
|                                   |                     (11939.1 MB/s)|
|Paraview                           |volume_flow_databladeVALIDATION_Blade_25.vtu|
|                                   |                     (919.133 MB/s)|
|Paraview surface                   |surface_flowdatabladeVALIDATION_Blade_25.vtu|
|                                   |                     (88.4882 MB/s)|
|SU2 ASCII restart                  |restart_flow_databladeVALIDATION_Blade_25.csv|
|                                   |                     (21.5657 MB/s)|
|CSV file                           |surface_flowdatabladeVALIDATION_Blade_25.csv|
|                                   |                     (21.6635 MB/s)|
+-----------------------------------------------------------------------+
+--------------------------------------+
|  Inner_Iter|   Time(sec)|    rms[Rho]|
+--------------------------------------+
|         660|  1.1597e-01|   -4.250919|
|         670|  1.1518e-01|   -4.298448|
|         680|  1.1450e-01|   -4.321261|
|         690|  1.1407e-01|   -4.274759|
|         700|  1.1339e-01|   -4.368208|
+-----------------------------------------------------------------------+
|        File Writing Summary       |              Filename             |
+-----------------------------------------------------------------------+
|SU2 binary restart                 |restart_flow_databladeVALIDATION_Blade_25.dat|
|                                   |                     (12030.1 MB/s)|
|Paraview                           |volume_flow_databladeVALIDATION_Blade_25.vtu|
|                                   |                     (945.904 MB/s)|
|Paraview surface                   |surface_flowdatabladeVALIDATION_Blade_25.vtu|
|                                   |                     (103.006 MB/s)|
|SU2 ASCII restart                  |restart_flow_databladeVALIDATION_Blade_25.csv|
|                                   |                     (20.8059 MB/s)|
|CSV file                           |surface_flowdatabladeVALIDATION_Blade_25.csv|
|                                   |                     (19.3217 MB/s)|
+-----------------------------------------------------------------------+
+--------------------------------------+
|  Inner_Iter|   Time(sec)|    rms[Rho]|
+--------------------------------------+
|         710|  1.1619e-01|   -4.401043|
|         720|  1.1572e-01|   -4.391237|
|         730|  1.1541e-01|   -4.400315|
|         740|  1.1483e-01|   -4.436251|
|         750|  1.1458e-01|   -4.413030|
+-----------------------------------------------------------------------+
|        File Writing Summary       |              Filename             |
+-----------------------------------------------------------------------+
|SU2 binary restart                 |restart_flow_databladeVALIDATION_Blade_25.dat|
|                                   |                     (10342.1 MB/s)|
|Paraview                           |volume_flow_databladeVALIDATION_Blade_25.vtu|
|                                   |                     (1038.29 MB/s)|
|Paraview surface                   |surface_flowdatabladeVALIDATION_Blade_25.vtu|
|                                   |                     (51.9526 MB/s)|
|SU2 ASCII restart                  |restart_flow_databladeVALIDATION_Blade_25.csv|
|                                   |                     (20.2533 MB/s)|
|CSV file                           |surface_flowdatabladeVALIDATION_Blade_25.csv|
|                                   |                      (20.364 MB/s)|
+-----------------------------------------------------------------------+
+--------------------------------------+
|  Inner_Iter|   Time(sec)|    rms[Rho]|
+--------------------------------------+
|         760|  1.1749e-01|   -4.350565|
|         770|  1.1705e-01|   -4.403113|
|         780|  1.1682e-01|   -4.399924|
|         790|  1.1625e-01|   -4.480366|
|         800|  1.1563e-01|   -4.488503|
+-----------------------------------------------------------------------+
|        File Writing Summary       |              Filename             |
+-----------------------------------------------------------------------+
|SU2 binary restart                 |restart_flow_databladeVALIDATION_Blade_25.dat|
|                                   |                     (13841.9 MB/s)|
|Paraview                           |volume_flow_databladeVALIDATION_Blade_25.vtu|
|                                   |                     (917.939 MB/s)|
|Paraview surface                   |surface_flowdatabladeVALIDATION_Blade_25.vtu|
|                                   |                     (99.2287 MB/s)|
|SU2 ASCII restart                  |restart_flow_databladeVALIDATION_Blade_25.csv|
|                                   |                     (20.1199 MB/s)|
|CSV file                           |surface_flowdatabladeVALIDATION_Blade_25.csv|
|                                   |                     (18.7636 MB/s)|
+-----------------------------------------------------------------------+
+--------------------------------------+
|  Inner_Iter|   Time(sec)|    rms[Rho]|
+--------------------------------------+
|         810|  1.1819e-01|   -4.479371|
|         820|  1.1769e-01|   -4.481001|
|         830|  1.1714e-01|   -4.530658|
|         840|  1.1663e-01|   -4.513918|
|         850|  1.1615e-01|   -4.484471|
+-----------------------------------------------------------------------+
|        File Writing Summary       |              Filename             |
+-----------------------------------------------------------------------+
|SU2 binary restart                 |restart_flow_databladeVALIDATION_Blade_25.dat|
|                                   |                       (13692 MB/s)|
|Paraview                           |volume_flow_databladeVALIDATION_Blade_25.vtu|
|                                   |                     (1084.16 MB/s)|
|Paraview surface                   |surface_flowdatabladeVALIDATION_Blade_25.vtu|
|                                   |                     (101.199 MB/s)|
|SU2 ASCII restart                  |restart_flow_databladeVALIDATION_Blade_25.csv|
|                                   |                     (21.0506 MB/s)|
|CSV file                           |surface_flowdatabladeVALIDATION_Blade_25.csv|
|                                   |                     (20.9019 MB/s)|
+-----------------------------------------------------------------------+
+--------------------------------------+
|  Inner_Iter|   Time(sec)|    rms[Rho]|
+--------------------------------------+
|         860|  1.1847e-01|   -4.527930|
|         870|  1.1792e-01|   -4.531596|
|         880|  1.1764e-01|   -4.496633|
|         890|  1.1746e-01|   -4.569137|
|         900|  1.1719e-01|   -4.584539|
+-----------------------------------------------------------------------+
|        File Writing Summary       |              Filename             |
+-----------------------------------------------------------------------+
|SU2 binary restart                 |restart_flow_databladeVALIDATION_Blade_25.dat|
|                                   |                     (13236.8 MB/s)|
|Paraview                           |volume_flow_databladeVALIDATION_Blade_25.vtu|
|                                   |                     (823.123 MB/s)|
|Paraview surface                   |surface_flowdatabladeVALIDATION_Blade_25.vtu|
|                                   |                     (87.4165 MB/s)|
|SU2 ASCII restart                  |restart_flow_databladeVALIDATION_Blade_25.csv|
|                                   |                     (20.3326 MB/s)|
|CSV file                           |surface_flowdatabladeVALIDATION_Blade_25.csv|
|                                   |                     (21.3109 MB/s)|
+-----------------------------------------------------------------------+
+--------------------------------------+
|  Inner_Iter|   Time(sec)|    rms[Rho]|
+--------------------------------------+
|         910|  1.1936e-01|   -4.646388|
|         920|  1.1879e-01|   -4.668534|
|         930|  1.1829e-01|   -4.671081|
|         940|  1.1788e-01|   -4.679319|
|         950|  1.1736e-01|   -4.735002|
+-----------------------------------------------------------------------+
|        File Writing Summary       |              Filename             |
+-----------------------------------------------------------------------+
|SU2 binary restart                 |restart_flow_databladeVALIDATION_Blade_25.dat|
|                                   |                     (12181.4 MB/s)|
|Paraview                           |volume_flow_databladeVALIDATION_Blade_25.vtu|
|                                   |                     (943.111 MB/s)|
|Paraview surface                   |surface_flowdatabladeVALIDATION_Blade_25.vtu|
|                                   |                     (83.6117 MB/s)|
|SU2 ASCII restart                  |restart_flow_databladeVALIDATION_Blade_25.csv|
|                                   |                     (20.6537 MB/s)|
|CSV file                           |surface_flowdatabladeVALIDATION_Blade_25.csv|
|                                   |                     (19.6745 MB/s)|
+-----------------------------------------------------------------------+
+--------------------------------------+
|  Inner_Iter|   Time(sec)|    rms[Rho]|
+--------------------------------------+
|         960|  1.1937e-01|   -4.740958|
|         970|  1.1888e-01|   -4.708609|
|         980|  1.1842e-01|   -4.731159|
|         990|  1.1794e-01|   -4.770979|
|        1000|  1.1747e-01|   -4.761183|
+-----------------------------------------------------------------------+
|        File Writing Summary       |              Filename             |
+-----------------------------------------------------------------------+
|SU2 binary restart                 |restart_flow_databladeVALIDATION_Blade_25.dat|
|                                   |                     (13438.7 MB/s)|
|Paraview                           |volume_flow_databladeVALIDATION_Blade_25.vtu|
|                                   |                     (954.885 MB/s)|
|Paraview surface                   |surface_flowdatabladeVALIDATION_Blade_25.vtu|
|                                   |                     (84.6837 MB/s)|
|SU2 ASCII restart                  |restart_flow_databladeVALIDATION_Blade_25.csv|
|                                   |                     (21.0675 MB/s)|
|CSV file                           |surface_flowdatabladeVALIDATION_Blade_25.csv|
|                                   |                     (20.0622 MB/s)|
+-----------------------------------------------------------------------+
+--------------------------------------+
|  Inner_Iter|   Time(sec)|    rms[Rho]|
+--------------------------------------+
|        1010|  1.1937e-01|   -4.749944|
|        1020|  1.1897e-01|   -4.760596|
|        1030|  1.1842e-01|   -4.772764|
|        1040|  1.1803e-01|   -4.728169|
|        1050|  1.1765e-01|   -4.760017|
+-----------------------------------------------------------------------+
|        File Writing Summary       |              Filename             |
+-----------------------------------------------------------------------+
|SU2 binary restart                 |restart_flow_databladeVALIDATION_Blade_25.dat|
|                                   |                     (9490.51 MB/s)|
|Paraview                           |volume_flow_databladeVALIDATION_Blade_25.vtu|
|                                   |                     (403.588 MB/s)|
|Paraview surface                   |surface_flowdatabladeVALIDATION_Blade_25.vtu|
|                                   |                     (69.1365 MB/s)|
|SU2 ASCII restart                  |restart_flow_databladeVALIDATION_Blade_25.csv|
|                                   |                     (20.1568 MB/s)|
|CSV file                           |surface_flowdatabladeVALIDATION_Blade_25.csv|
|                                   |                     (17.7458 MB/s)|
+-----------------------------------------------------------------------+
+--------------------------------------+
|  Inner_Iter|   Time(sec)|    rms[Rho]|
+--------------------------------------+
|        1060|  1.1953e-01|   -4.783050|
|        1070|  1.1908e-01|   -4.775324|
|        1080|  1.1864e-01|   -4.759889|
|        1090|  1.1820e-01|   -4.785699|
|        1100|  1.1773e-01|   -4.795620|
+-----------------------------------------------------------------------+
|        File Writing Summary       |              Filename             |
+-----------------------------------------------------------------------+
|SU2 binary restart                 |restart_flow_databladeVALIDATION_Blade_25.dat|
|                                   |                     (13302.7 MB/s)|
|Paraview                           |volume_flow_databladeVALIDATION_Blade_25.vtu|
|                                   |                     (1059.99 MB/s)|
|Paraview surface                   |surface_flowdatabladeVALIDATION_Blade_25.vtu|
|                                   |                     (90.2572 MB/s)|
|SU2 ASCII restart                  |restart_flow_databladeVALIDATION_Blade_25.csv|
|                                   |                     (20.8615 MB/s)|
|CSV file                           |surface_flowdatabladeVALIDATION_Blade_25.csv|
|                                   |                     (19.3554 MB/s)|
+-----------------------------------------------------------------------+
+--------------------------------------+
|  Inner_Iter|   Time(sec)|    rms[Rho]|
+--------------------------------------+
|        1110|  1.1950e-01|   -4.783262|
|        1120|  1.1910e-01|   -4.771179|
|        1130|  1.1863e-01|   -4.808750|
|        1140|  1.1813e-01|   -4.812561|
|        1150|  1.1774e-01|   -4.794087|
+-----------------------------------------------------------------------+
|        File Writing Summary       |              Filename             |
+-----------------------------------------------------------------------+
|SU2 binary restart                 |restart_flow_databladeVALIDATION_Blade_25.dat|
|                                   |                       (10751 MB/s)|
|Paraview                           |volume_flow_databladeVALIDATION_Blade_25.vtu|
|                                   |                     (1002.67 MB/s)|
|Paraview surface                   |surface_flowdatabladeVALIDATION_Blade_25.vtu|
|                                   |                     (95.9355 MB/s)|
|SU2 ASCII restart                  |restart_flow_databladeVALIDATION_Blade_25.csv|
|                                   |                     (20.8359 MB/s)|
|CSV file                           |surface_flowdatabladeVALIDATION_Blade_25.csv|
|                                   |                     (21.1435 MB/s)|
+-----------------------------------------------------------------------+
+--------------------------------------+
|  Inner_Iter|   Time(sec)|    rms[Rho]|
+--------------------------------------+
|        1160|  1.1946e-01|   -4.817689|
|        1170|  1.1901e-01|   -4.848869|
|        1180|  1.1856e-01|   -4.851571|
|        1190|  1.1824e-01|   -4.832372|
|        1200|  1.1799e-01|   -4.843054|
+-----------------------------------------------------------------------+
|        File Writing Summary       |              Filename             |
+-----------------------------------------------------------------------+
|SU2 binary restart                 |restart_flow_databladeVALIDATION_Blade_25.dat|
|                                   |                     (12332.9 MB/s)|
|Paraview                           |volume_flow_databladeVALIDATION_Blade_25.vtu|
|                                   |                     (1025.26 MB/s)|
|Paraview surface                   |surface_flowdatabladeVALIDATION_Blade_25.vtu|
|                                   |                     (100.235 MB/s)|
|SU2 ASCII restart                  |restart_flow_databladeVALIDATION_Blade_25.csv|
|                                   |                     (20.8163 MB/s)|
|CSV file                           |surface_flowdatabladeVALIDATION_Blade_25.csv|
|                                   |                     (20.8581 MB/s)|
+-----------------------------------------------------------------------+
+--------------------------------------+
|  Inner_Iter|   Time(sec)|    rms[Rho]|
+--------------------------------------+
|        1210|  1.1959e-01|   -4.877400|
|        1220|  1.1918e-01|   -4.868261|
|        1230|  1.1876e-01|   -4.898805|
|        1240|  1.1836e-01|   -4.916760|
|        1250|  1.1797e-01|   -4.922189|
+-----------------------------------------------------------------------+
|        File Writing Summary       |              Filename             |
+-----------------------------------------------------------------------+
|SU2 binary restart                 |restart_flow_databladeVALIDATION_Blade_25.dat|
|                                   |                     (11326.7 MB/s)|
|Paraview                           |volume_flow_databladeVALIDATION_Blade_25.vtu|
|                                   |                     (1053.01 MB/s)|
|Paraview surface                   |surface_flowdatabladeVALIDATION_Blade_25.vtu|
|                                   |                     (100.202 MB/s)|
|SU2 ASCII restart                  |restart_flow_databladeVALIDATION_Blade_25.csv|
|                                   |                     (21.1092 MB/s)|
|CSV file                           |surface_flowdatabladeVALIDATION_Blade_25.csv|
|                                   |                     (19.5387 MB/s)|
+-----------------------------------------------------------------------+
+--------------------------------------+
|  Inner_Iter|   Time(sec)|    rms[Rho]|
+--------------------------------------+
|        1260|  1.1948e-01|   -4.905015|
|        1270|  1.1904e-01|   -4.939821|
|        1280|  1.1859e-01|   -4.946459|
|        1290|  1.1821e-01|   -4.942728|
|        1300|  1.1791e-01|   -4.939032|
+-----------------------------------------------------------------------+
|        File Writing Summary       |              Filename             |
+-----------------------------------------------------------------------+
|SU2 binary restart                 |restart_flow_databladeVALIDATION_Blade_25.dat|
|                                   |                     (1177.31 MB/s)|
|Paraview                           |volume_flow_databladeVALIDATION_Blade_25.vtu|
|                                   |                     (1202.87 MB/s)|
|Paraview surface                   |surface_flowdatabladeVALIDATION_Blade_25.vtu|
|                                   |                     (101.591 MB/s)|
|SU2 ASCII restart                  |restart_flow_databladeVALIDATION_Blade_25.csv|
|                                   |                     (21.0056 MB/s)|
|CSV file                           |surface_flowdatabladeVALIDATION_Blade_25.csv|
|                                   |                     (19.6599 MB/s)|
+-----------------------------------------------------------------------+
+--------------------------------------+
|  Inner_Iter|   Time(sec)|    rms[Rho]|
+--------------------------------------+
|        1310|  1.1935e-01|   -4.966171|
|        1320|  1.1894e-01|   -4.970362|
|        1330|  1.1856e-01|   -4.962529|
|        1340|  1.1819e-01|   -4.970855|
|        1350|  1.1777e-01|   -4.988654|
+-----------------------------------------------------------------------+
|        File Writing Summary       |              Filename             |
+-----------------------------------------------------------------------+
|SU2 binary restart                 |restart_flow_databladeVALIDATION_Blade_25.dat|
|                                   |                     (10948.6 MB/s)|
|Paraview                           |volume_flow_databladeVALIDATION_Blade_25.vtu|
|                                   |                     (933.115 MB/s)|
|Paraview surface                   |surface_flowdatabladeVALIDATION_Blade_25.vtu|
|                                   |                     (85.6494 MB/s)|
|SU2 ASCII restart                  |restart_flow_databladeVALIDATION_Blade_25.csv|
|                                   |                      (21.488 MB/s)|
|CSV file                           |surface_flowdatabladeVALIDATION_Blade_25.csv|
|                                   |                     (21.8073 MB/s)|
+-----------------------------------------------------------------------+
+--------------------------------------+
|  Inner_Iter|   Time(sec)|    rms[Rho]|
+--------------------------------------+
|        1360|  1.1916e-01|   -4.970737|
|        1370|  1.1880e-01|   -4.978972|
|        1380|  1.1836e-01|   -5.012490|
|        1390|  1.1798e-01|   -5.023652|
|        1400|  1.1763e-01|   -5.018402|
+-----------------------------------------------------------------------+
|        File Writing Summary       |              Filename             |
+-----------------------------------------------------------------------+
|SU2 binary restart                 |restart_flow_databladeVALIDATION_Blade_25.dat|
|                                   |                     (12754.6 MB/s)|
|Paraview                           |volume_flow_databladeVALIDATION_Blade_25.vtu|
|                                   |                     (1002.71 MB/s)|
|Paraview surface                   |surface_flowdatabladeVALIDATION_Blade_25.vtu|
|                                   |                     (58.5999 MB/s)|
|SU2 ASCII restart                  |restart_flow_databladeVALIDATION_Blade_25.csv|
|                                   |                     (21.1341 MB/s)|
|CSV file                           |surface_flowdatabladeVALIDATION_Blade_25.csv|
|                                   |                      (21.459 MB/s)|
+-----------------------------------------------------------------------+
+--------------------------------------+
|  Inner_Iter|   Time(sec)|    rms[Rho]|
+--------------------------------------+
|        1410|  1.1898e-01|   -5.021363|
|        1420|  1.1857e-01|   -5.037111|
|        1430|  1.1822e-01|   -5.029828|
|        1440|  1.1792e-01|   -4.999109|
|        1450|  1.1769e-01|   -5.039441|
+-----------------------------------------------------------------------+
|        File Writing Summary       |              Filename             |
+-----------------------------------------------------------------------+
|SU2 binary restart                 |restart_flow_databladeVALIDATION_Blade_25.dat|
|                                   |                     (10658.3 MB/s)|
|Paraview                           |volume_flow_databladeVALIDATION_Blade_25.vtu|
|                                   |                     (1034.88 MB/s)|
|Paraview surface                   |surface_flowdatabladeVALIDATION_Blade_25.vtu|
|                                   |                     (77.3654 MB/s)|
|SU2 ASCII restart                  |restart_flow_databladeVALIDATION_Blade_25.csv|
|                                   |                     (21.2282 MB/s)|
|CSV file                           |surface_flowdatabladeVALIDATION_Blade_25.csv|
|                                   |                     (19.1136 MB/s)|
+-----------------------------------------------------------------------+
+--------------------------------------+
|  Inner_Iter|   Time(sec)|    rms[Rho]|
+--------------------------------------+
|        1460|  1.1909e-01|   -5.079060|
|        1470|  1.1883e-01|   -5.101397|
|        1480|  1.1859e-01|   -5.111862|
|        1490|  1.1824e-01|   -5.141610|
|        1500|  1.1794e-01|   -5.123356|
+-----------------------------------------------------------------------+
|        File Writing Summary       |              Filename             |
+-----------------------------------------------------------------------+
|SU2 binary restart                 |restart_flow_databladeVALIDATION_Blade_25.dat|
|                                   |                     (12669.7 MB/s)|
|Paraview                           |volume_flow_databladeVALIDATION_Blade_25.vtu|
|                                   |                     (1099.68 MB/s)|
|Paraview surface                   |surface_flowdatabladeVALIDATION_Blade_25.vtu|
|                                   |                      (98.186 MB/s)|
|SU2 ASCII restart                  |restart_flow_databladeVALIDATION_Blade_25.csv|
|                                   |                     (21.2545 MB/s)|
|CSV file                           |surface_flowdatabladeVALIDATION_Blade_25.csv|
|                                   |                     (19.4953 MB/s)|
+-----------------------------------------------------------------------+
+--------------------------------------+
|  Inner_Iter|   Time(sec)|    rms[Rho]|
+--------------------------------------+
|        1510|  1.1919e-01|   -5.143811|
|        1520|  1.1883e-01|   -5.157428|
|        1530|  1.1859e-01|   -5.126671|
|        1540|  1.1840e-01|   -5.133362|
|        1550|  1.1818e-01|   -5.156572|
+-----------------------------------------------------------------------+
|        File Writing Summary       |              Filename             |
+-----------------------------------------------------------------------+
|SU2 binary restart                 |restart_flow_databladeVALIDATION_Blade_25.dat|
|                                   |                     (12265.3 MB/s)|
|Paraview                           |volume_flow_databladeVALIDATION_Blade_25.vtu|
|                                   |                     (705.049 MB/s)|
|Paraview surface                   |surface_flowdatabladeVALIDATION_Blade_25.vtu|
|                                   |                     (92.1724 MB/s)|
|SU2 ASCII restart                  |restart_flow_databladeVALIDATION_Blade_25.csv|
|                                   |                     (19.5038 MB/s)|
|CSV file                           |surface_flowdatabladeVALIDATION_Blade_25.csv|
|                                   |                     (19.3515 MB/s)|
+-----------------------------------------------------------------------+
+--------------------------------------+
|  Inner_Iter|   Time(sec)|    rms[Rho]|
+--------------------------------------+
|        1560|  1.1965e-01|   -5.182216|
|        1570|  1.1945e-01|   -5.199696|
|        1580|  1.1924e-01|   -5.222698|
|        1590|  1.1908e-01|   -5.238737|
|        1600|  1.1880e-01|   -5.274992|
+-----------------------------------------------------------------------+
|        File Writing Summary       |              Filename             |
+-----------------------------------------------------------------------+
|SU2 binary restart                 |restart_flow_databladeVALIDATION_Blade_25.dat|
|                                   |                     (10645.9 MB/s)|
|Paraview                           |volume_flow_databladeVALIDATION_Blade_25.vtu|
|                                   |                     (983.256 MB/s)|
|Paraview surface                   |surface_flowdatabladeVALIDATION_Blade_25.vtu|
|                                   |                     (73.8327 MB/s)|
|SU2 ASCII restart                  |restart_flow_databladeVALIDATION_Blade_25.csv|
|                                   |                     (21.0783 MB/s)|
|CSV file                           |surface_flowdatabladeVALIDATION_Blade_25.csv|
|                                   |                     (21.7677 MB/s)|
+-----------------------------------------------------------------------+
+--------------------------------------+
|  Inner_Iter|   Time(sec)|    rms[Rho]|
+--------------------------------------+
|        1610|  1.2000e-01|   -5.259337|
|        1620|  1.1966e-01|   -5.306560|
|        1630|  1.1931e-01|   -5.320057|
|        1640|  1.1908e-01|   -5.292749|
|        1650|  1.1877e-01|   -5.350328|
+-----------------------------------------------------------------------+
|        File Writing Summary       |              Filename             |
+-----------------------------------------------------------------------+
|SU2 binary restart                 |restart_flow_databladeVALIDATION_Blade_25.dat|
|                                   |                     (12560.2 MB/s)|
|Paraview                           |volume_flow_databladeVALIDATION_Blade_25.vtu|
|                                   |                     (1002.46 MB/s)|
|Paraview surface                   |surface_flowdatabladeVALIDATION_Blade_25.vtu|
|                                   |                     (93.0762 MB/s)|
|SU2 ASCII restart                  |restart_flow_databladeVALIDATION_Blade_25.csv|
|                                   |                     (21.6683 MB/s)|
|CSV file                           |surface_flowdatabladeVALIDATION_Blade_25.csv|
|                                   |                     (21.4233 MB/s)|
+-----------------------------------------------------------------------+
+--------------------------------------+
|  Inner_Iter|   Time(sec)|    rms[Rho]|
+--------------------------------------+
|        1660|  1.1990e-01|   -5.333218|
|        1670|  1.1962e-01|   -5.369626|
|        1680|  1.1934e-01|   -5.390052|
|        1690|  1.1907e-01|   -5.385091|
|        1700|  1.1882e-01|   -5.333941|
+-----------------------------------------------------------------------+
|        File Writing Summary       |              Filename             |
+-----------------------------------------------------------------------+
|SU2 binary restart                 |restart_flow_databladeVALIDATION_Blade_25.dat|
|                                   |                     (12211.1 MB/s)|
|Paraview                           |volume_flow_databladeVALIDATION_Blade_25.vtu|
|                                   |                     (1012.17 MB/s)|
|Paraview surface                   |surface_flowdatabladeVALIDATION_Blade_25.vtu|
|                                   |                     (95.5704 MB/s)|
|SU2 ASCII restart                  |restart_flow_databladeVALIDATION_Blade_25.csv|
|                                   |                     (21.2427 MB/s)|
|CSV file                           |surface_flowdatabladeVALIDATION_Blade_25.csv|
|                                   |                     (19.3711 MB/s)|
+-----------------------------------------------------------------------+
+--------------------------------------+
|  Inner_Iter|   Time(sec)|    rms[Rho]|
+--------------------------------------+
|        1710|  1.1993e-01|   -5.380501|
|        1720|  1.1960e-01|   -5.377673|
|        1730|  1.1937e-01|   -5.298230|
|        1740|  1.1904e-01|   -5.393345|
|        1750|  1.1872e-01|   -5.415079|
+-----------------------------------------------------------------------+
|        File Writing Summary       |              Filename             |
+-----------------------------------------------------------------------+
|SU2 binary restart                 |restart_flow_databladeVALIDATION_Blade_25.dat|
|                                   |                     (12841.7 MB/s)|
|Paraview                           |volume_flow_databladeVALIDATION_Blade_25.vtu|
|                                   |                     (1047.89 MB/s)|
|Paraview surface                   |surface_flowdatabladeVALIDATION_Blade_25.vtu|
|                                   |                     (98.1061 MB/s)|
|SU2 ASCII restart                  |restart_flow_databladeVALIDATION_Blade_25.csv|
|                                   |                     (21.1633 MB/s)|
|CSV file                           |surface_flowdatabladeVALIDATION_Blade_25.csv|
|                                   |                      (18.016 MB/s)|
+-----------------------------------------------------------------------+
+--------------------------------------+
|  Inner_Iter|   Time(sec)|    rms[Rho]|
+--------------------------------------+
|        1760|  1.1981e-01|   -5.404328|
|        1770|  1.1959e-01|   -5.416840|
|        1780|  1.1926e-01|   -5.482577|
|        1790|  1.1895e-01|   -5.472009|
|        1800|  1.1873e-01|   -5.368922|
+-----------------------------------------------------------------------+
|        File Writing Summary       |              Filename             |
+-----------------------------------------------------------------------+
|SU2 binary restart                 |restart_flow_databladeVALIDATION_Blade_25.dat|
|                                   |                     (12573.6 MB/s)|
|Paraview                           |volume_flow_databladeVALIDATION_Blade_25.vtu|
|                                   |                     (1066.95 MB/s)|
|Paraview surface                   |surface_flowdatabladeVALIDATION_Blade_25.vtu|
|                                   |                     (98.7208 MB/s)|
|SU2 ASCII restart                  |restart_flow_databladeVALIDATION_Blade_25.csv|
|                                   |                     (20.9548 MB/s)|
|CSV file                           |surface_flowdatabladeVALIDATION_Blade_25.csv|
|                                   |                      (19.547 MB/s)|
+-----------------------------------------------------------------------+
+--------------------------------------+
|  Inner_Iter|   Time(sec)|    rms[Rho]|
+--------------------------------------+
|        1810|  1.1976e-01|   -5.442712|
|        1820|  1.1947e-01|   -5.463763|
|        1830|  1.1919e-01|   -5.446306|
|        1840|  1.1900e-01|   -5.430535|
|        1850|  1.1880e-01|   -5.529487|
+-----------------------------------------------------------------------+
|        File Writing Summary       |              Filename             |
+-----------------------------------------------------------------------+
|SU2 binary restart                 |restart_flow_databladeVALIDATION_Blade_25.dat|
|                                   |                     (7906.57 MB/s)|
|Paraview                           |volume_flow_databladeVALIDATION_Blade_25.vtu|
|                                   |                     (949.583 MB/s)|
|Paraview surface                   |surface_flowdatabladeVALIDATION_Blade_25.vtu|
|                                   |                      (99.196 MB/s)|
|SU2 ASCII restart                  |restart_flow_databladeVALIDATION_Blade_25.csv|
|                                   |                     (21.1172 MB/s)|
|CSV file                           |surface_flowdatabladeVALIDATION_Blade_25.csv|
|                                   |                     (19.0551 MB/s)|
+-----------------------------------------------------------------------+
+--------------------------------------+
|  Inner_Iter|   Time(sec)|    rms[Rho]|
+--------------------------------------+
|        1860|  1.1981e-01|   -5.526103|
|        1870|  1.1958e-01|   -5.450589|
|        1880|  1.1940e-01|   -5.509104|
|        1890|  1.1927e-01|   -5.485953|
|        1900|  1.1909e-01|   -5.543430|
+-----------------------------------------------------------------------+
|        File Writing Summary       |              Filename             |
+-----------------------------------------------------------------------+
|SU2 binary restart                 |restart_flow_databladeVALIDATION_Blade_25.dat|
|                                   |                     (12141.3 MB/s)|
|Paraview                           |volume_flow_databladeVALIDATION_Blade_25.vtu|
|                                   |                     (976.436 MB/s)|
|Paraview surface                   |surface_flowdatabladeVALIDATION_Blade_25.vtu|
|                                   |                     (104.993 MB/s)|
|SU2 ASCII restart                  |restart_flow_databladeVALIDATION_Blade_25.csv|
|                                   |                     (21.1088 MB/s)|
|CSV file                           |surface_flowdatabladeVALIDATION_Blade_25.csv|
|                                   |                     (21.3617 MB/s)|
+-----------------------------------------------------------------------+
+--------------------------------------+
|  Inner_Iter|   Time(sec)|    rms[Rho]|
+--------------------------------------+
|        1910|  1.2005e-01|   -5.587367|
|        1920|  1.1981e-01|   -5.565223|
|        1930|  1.1961e-01|   -5.537666|
|        1940|  1.1938e-01|   -5.582792|
|        1950|  1.1909e-01|   -5.596327|
+-----------------------------------------------------------------------+
|        File Writing Summary       |              Filename             |
+-----------------------------------------------------------------------+
|SU2 binary restart                 |restart_flow_databladeVALIDATION_Blade_25.dat|
|                                   |                     (13167.3 MB/s)|
|Paraview                           |volume_flow_databladeVALIDATION_Blade_25.vtu|
|                                   |                     (1079.25 MB/s)|
|Paraview surface                   |surface_flowdatabladeVALIDATION_Blade_25.vtu|
|                                   |                     (99.9527 MB/s)|
|SU2 ASCII restart                  |restart_flow_databladeVALIDATION_Blade_25.csv|
|                                   |                     (21.0524 MB/s)|
|CSV file                           |surface_flowdatabladeVALIDATION_Blade_25.csv|
|                                   |                     (18.4241 MB/s)|
+-----------------------------------------------------------------------+
+--------------------------------------+
|  Inner_Iter|   Time(sec)|    rms[Rho]|
+--------------------------------------+
|        1960|  1.2007e-01|   -5.533141|
|        1970|  1.1986e-01|   -5.548201|
|        1980|  1.1957e-01|   -5.625763|
|        1990|  1.1932e-01|   -5.631476|
|        2000|  1.1913e-01|   -5.611032|
+-----------------------------------------------------------------------+
|        File Writing Summary       |              Filename             |
+-----------------------------------------------------------------------+
|SU2 binary restart                 |restart_flow_databladeVALIDATION_Blade_25.dat|
|                                   |                     (12511.8 MB/s)|
|Paraview                           |volume_flow_databladeVALIDATION_Blade_25.vtu|
|                                   |                     (1102.37 MB/s)|
|Paraview surface                   |surface_flowdatabladeVALIDATION_Blade_25.vtu|
|                                   |                     (95.0467 MB/s)|
|SU2 ASCII restart                  |restart_flow_databladeVALIDATION_Blade_25.csv|
|                                   |                     (21.1793 MB/s)|
|CSV file                           |surface_flowdatabladeVALIDATION_Blade_25.csv|
|                                   |                     (19.7385 MB/s)|
+-----------------------------------------------------------------------+
+--------------------------------------+
|  Inner_Iter|   Time(sec)|    rms[Rho]|
+--------------------------------------+
|        2010|  1.2015e-01|   -5.639413|
|        2020|  1.1998e-01|   -5.619917|
|        2030|  1.1974e-01|   -5.673085|
|        2040|  1.1954e-01|   -5.662832|
|        2050|  1.1929e-01|   -5.747995|
+-----------------------------------------------------------------------+
|        File Writing Summary       |              Filename             |
+-----------------------------------------------------------------------+
|SU2 binary restart                 |restart_flow_databladeVALIDATION_Blade_25.dat|
|                                   |                     (13156.9 MB/s)|
|Paraview                           |volume_flow_databladeVALIDATION_Blade_25.vtu|
|                                   |                     (937.581 MB/s)|
|Paraview surface                   |surface_flowdatabladeVALIDATION_Blade_25.vtu|
|                                   |                     (26.5803 MB/s)|
|SU2 ASCII restart                  |restart_flow_databladeVALIDATION_Blade_25.csv|
|                                   |                      (21.214 MB/s)|
|CSV file                           |surface_flowdatabladeVALIDATION_Blade_25.csv|
|                                   |                       (21.79 MB/s)|
+-----------------------------------------------------------------------+
+--------------------------------------+
|  Inner_Iter|   Time(sec)|    rms[Rho]|
+--------------------------------------+
|        2060|  1.2019e-01|   -5.765462|
|        2070|  1.1999e-01|   -5.739091|
|        2080|  1.1983e-01|   -5.730414|
|        2090|  1.1957e-01|   -5.779801|
|        2100|  1.1936e-01|   -5.732150|
+-----------------------------------------------------------------------+
|        File Writing Summary       |              Filename             |
+-----------------------------------------------------------------------+
|SU2 binary restart                 |restart_flow_databladeVALIDATION_Blade_25.dat|
|                                   |                       (12160 MB/s)|
|Paraview                           |volume_flow_databladeVALIDATION_Blade_25.vtu|
|                                   |                     (1068.03 MB/s)|
|Paraview surface                   |surface_flowdatabladeVALIDATION_Blade_25.vtu|
|                                   |                     (98.0742 MB/s)|
|SU2 ASCII restart                  |restart_flow_databladeVALIDATION_Blade_25.csv|
|                                   |                     (20.2604 MB/s)|
|CSV file                           |surface_flowdatabladeVALIDATION_Blade_25.csv|
|                                   |                     (19.7891 MB/s)|
+-----------------------------------------------------------------------+
+--------------------------------------+
|  Inner_Iter|   Time(sec)|    rms[Rho]|
+--------------------------------------+
|        2110|  1.2031e-01|   -5.716150|
|        2120|  1.2006e-01|   -5.796438|
|        2130|  1.1981e-01|   -5.810827|
|        2140|  1.1959e-01|   -5.790237|
|        2150|  1.1938e-01|   -5.776805|
+-----------------------------------------------------------------------+
|        File Writing Summary       |              Filename             |
+-----------------------------------------------------------------------+
|SU2 binary restart                 |restart_flow_databladeVALIDATION_Blade_25.dat|
|                                   |                     (9557.87 MB/s)|
|Paraview                           |volume_flow_databladeVALIDATION_Blade_25.vtu|
|                                   |                     (878.212 MB/s)|
|Paraview surface                   |surface_flowdatabladeVALIDATION_Blade_25.vtu|
|                                   |                     (27.7845 MB/s)|
|SU2 ASCII restart                  |restart_flow_databladeVALIDATION_Blade_25.csv|
|                                   |                     (20.4044 MB/s)|
|CSV file                           |surface_flowdatabladeVALIDATION_Blade_25.csv|
|                                   |                     (20.9818 MB/s)|
+-----------------------------------------------------------------------+
+--------------------------------------+
|  Inner_Iter|   Time(sec)|    rms[Rho]|
+--------------------------------------+
|        2160|  1.2033e-01|   -5.835240|
|        2170|  1.2015e-01|   -5.790598|
|        2180|  1.1996e-01|   -5.757686|
|        2190|  1.1978e-01|   -5.814028|
|        2200|  1.1959e-01|   -5.843660|
+-----------------------------------------------------------------------+
|        File Writing Summary       |              Filename             |
+-----------------------------------------------------------------------+
|SU2 binary restart                 |restart_flow_databladeVALIDATION_Blade_25.dat|
|                                   |                     (4310.07 MB/s)|
|Paraview                           |volume_flow_databladeVALIDATION_Blade_25.vtu|
|                                   |                     (189.849 MB/s)|
|Paraview surface                   |surface_flowdatabladeVALIDATION_Blade_25.vtu|
|                                   |                     (38.7082 MB/s)|
|SU2 ASCII restart                  |restart_flow_databladeVALIDATION_Blade_25.csv|
|                                   |                     (19.6152 MB/s)|
|CSV file                           |surface_flowdatabladeVALIDATION_Blade_25.csv|
|                                   |                     (20.7153 MB/s)|
+-----------------------------------------------------------------------+
+--------------------------------------+
|  Inner_Iter|   Time(sec)|    rms[Rho]|
+--------------------------------------+
|        2210|  1.2076e-01|   -5.794047|
|        2220|  1.2062e-01|   -5.820137|
|        2230|  1.2042e-01|   -5.881204|
|        2240|  1.2027e-01|   -5.844758|
|        2250|  1.2027e-01|   -5.803074|
+-----------------------------------------------------------------------+
|        File Writing Summary       |              Filename             |
+-----------------------------------------------------------------------+
|SU2 binary restart                 |restart_flow_databladeVALIDATION_Blade_25.dat|
|                                   |                     (11840.1 MB/s)|
|Paraview                           |volume_flow_databladeVALIDATION_Blade_25.vtu|
|                                   |                     (866.373 MB/s)|
|Paraview surface                   |surface_flowdatabladeVALIDATION_Blade_25.vtu|
|                                   |                     (46.2222 MB/s)|
|SU2 ASCII restart                  |restart_flow_databladeVALIDATION_Blade_25.csv|
|                                   |                     (19.1264 MB/s)|
|CSV file                           |surface_flowdatabladeVALIDATION_Blade_25.csv|
|                                   |                     (18.9873 MB/s)|
+-----------------------------------------------------------------------+
+--------------------------------------+
|  Inner_Iter|   Time(sec)|    rms[Rho]|
+--------------------------------------+
|        2260|  1.2124e-01|   -5.850587|
|        2270|  1.2103e-01|   -5.877174|
|        2280|  1.2087e-01|   -5.836354|
|        2290|  1.2091e-01|   -5.895986|
|        2300|  1.2074e-01|   -5.934194|
+-----------------------------------------------------------------------+
|        File Writing Summary       |              Filename             |
+-----------------------------------------------------------------------+
|SU2 binary restart                 |restart_flow_databladeVALIDATION_Blade_25.dat|
|                                   |                     (8812.33 MB/s)|
|Paraview                           |volume_flow_databladeVALIDATION_Blade_25.vtu|
|                                   |                     (970.985 MB/s)|
|Paraview surface                   |surface_flowdatabladeVALIDATION_Blade_25.vtu|
|                                   |                     (75.4219 MB/s)|
|SU2 ASCII restart                  |restart_flow_databladeVALIDATION_Blade_25.csv|
|                                   |                      (19.873 MB/s)|
|CSV file                           |surface_flowdatabladeVALIDATION_Blade_25.csv|
|                                   |                     (19.6678 MB/s)|
+-----------------------------------------------------------------------+
+--------------------------------------+
|  Inner_Iter|   Time(sec)|    rms[Rho]|
+--------------------------------------+
|        2310|  1.2163e-01|   -5.910735|
|        2320|  1.2149e-01|   -5.873850|
|        2330|  1.2162e-01|   -5.914561|
|        2340|  1.2144e-01|   -5.936447|
|        2350|  1.2130e-01|   -5.893622|
+-----------------------------------------------------------------------+
|        File Writing Summary       |              Filename             |
+-----------------------------------------------------------------------+
|SU2 binary restart                 |restart_flow_databladeVALIDATION_Blade_25.dat|
|                                   |                     (5995.25 MB/s)|
|Paraview                           |volume_flow_databladeVALIDATION_Blade_25.vtu|
[...]
|        File Writing Summary       |              Filename             |
+-----------------------------------------------------------------------+
|SU2 binary restart                 |restart_flow_databladeVALIDATION_Blade_25.dat|
|                                   |                     (12101.3 MB/s)|
|Paraview                           |volume_flow_databladeVALIDATION_Blade_25.vtu|
|                                   |                     (1080.24 MB/s)|
|Paraview surface                   |surface_flowdatabladeVALIDATION_Blade_25.vtu|
|                                   |                     (99.5976 MB/s)|
|SU2 ASCII restart                  |restart_flow_databladeVALIDATION_Blade_25.csv|
|                                   |                     (21.4335 MB/s)|
|CSV file                           |surface_flowdatabladeVALIDATION_Blade_25.csv|
|                                   |                     (19.5684 MB/s)|
+-----------------------------------------------------------------------+
+--------------------------------------+
|  Inner_Iter|   Time(sec)|    rms[Rho]|
+--------------------------------------+
|        3260|  1.2492e-01|   -6.633612|
|        3270|  1.2476e-01|   -6.626196|
|        3280|  1.2458e-01|   -6.649246|
|        3290|  1.2439e-01|   -6.655955|
|        3300|  1.2424e-01|   -6.629454|
+-----------------------------------------------------------------------+
|        File Writing Summary       |              Filename             |
+-----------------------------------------------------------------------+
|SU2 binary restart                 |restart_flow_databladeVALIDATION_Blade_25.dat|
|                                   |                     (13237.9 MB/s)|
|Paraview                           |volume_flow_databladeVALIDATION_Blade_25.vtu|
|                                   |                      (1045.7 MB/s)|
|Paraview surface                   |surface_flowdatabladeVALIDATION_Blade_25.vtu|
|                                   |                     (63.9893 MB/s)|
|SU2 ASCII restart                  |restart_flow_databladeVALIDATION_Blade_25.csv|
|                                   |                     (21.3087 MB/s)|
|CSV file                           |surface_flowdatabladeVALIDATION_Blade_25.csv|
|                                   |                     (19.9487 MB/s)|
+-----------------------------------------------------------------------+
+--------------------------------------+
|  Inner_Iter|   Time(sec)|    rms[Rho]|
+--------------------------------------+
|        3310|  1.2479e-01|   -6.668458|
|        3320|  1.2462e-01|   -6.677727|
|        3330|  1.2446e-01|   -6.675737|
|        3340|  1.2431e-01|   -6.663140|
|        3350|  1.2419e-01|   -6.667746|
+-----------------------------------------------------------------------+
|        File Writing Summary       |              Filename             |
+-----------------------------------------------------------------------+
|SU2 binary restart                 |restart_flow_databladeVALIDATION_Blade_25.dat|
|                                   |                     (12031.9 MB/s)|
|Paraview                           |volume_flow_databladeVALIDATION_Blade_25.vtu|
|                                   |                     (1078.82 MB/s)|
|Paraview surface                   |surface_flowdatabladeVALIDATION_Blade_25.vtu|
|                                   |                     (87.7985 MB/s)|
|SU2 ASCII restart                  |restart_flow_databladeVALIDATION_Blade_25.csv|
|                                   |                     (21.0803 MB/s)|
|CSV file                           |surface_flowdatabladeVALIDATION_Blade_25.csv|
|                                   |                     (21.1093 MB/s)|
+-----------------------------------------------------------------------+
+--------------------------------------+
|  Inner_Iter|   Time(sec)|    rms[Rho]|
+--------------------------------------+
|        3360|  1.2476e-01|   -6.679019|
|        3370|  1.2461e-01|   -6.699110|
|        3380|  1.2442e-01|   -6.718891|
|        3390|  1.2426e-01|   -6.725518|
|        3400|  1.2412e-01|   -6.706102|
+-----------------------------------------------------------------------+
|        File Writing Summary       |              Filename             |
+-----------------------------------------------------------------------+
|SU2 binary restart                 |restart_flow_databladeVALIDATION_Blade_25.dat|
|                                   |                     (11125.8 MB/s)|
|Paraview                           |volume_flow_databladeVALIDATION_Blade_25.vtu|
|                                   |                     (1044.22 MB/s)|
|Paraview surface                   |surface_flowdatabladeVALIDATION_Blade_25.vtu|
|                                   |                     (86.8028 MB/s)|
|SU2 ASCII restart                  |restart_flow_databladeVALIDATION_Blade_25.csv|
|                                   |                     (20.6512 MB/s)|
|CSV file                           |surface_flowdatabladeVALIDATION_Blade_25.csv|
|                                   |                     (21.1252 MB/s)|
+-----------------------------------------------------------------------+
+--------------------------------------+
|  Inner_Iter|   Time(sec)|    rms[Rho]|
+--------------------------------------+
|        3410|  1.2473e-01|   -6.725491|
|        3420|  1.2461e-01|   -6.736778|
|        3430|  1.2447e-01|   -6.748525|
|        3440|  1.2431e-01|   -6.769345|
|        3450|  1.2412e-01|   -6.784538|
+-----------------------------------------------------------------------+
|        File Writing Summary       |              Filename             |
+-----------------------------------------------------------------------+
|SU2 binary restart                 |restart_flow_databladeVALIDATION_Blade_25.dat|
|                                   |                     (13603.2 MB/s)|
|Paraview                           |volume_flow_databladeVALIDATION_Blade_25.vtu|
|                                   |                     (1033.85 MB/s)|
|Paraview surface                   |surface_flowdatabladeVALIDATION_Blade_25.vtu|
|                                   |                     (109.178 MB/s)|
|SU2 ASCII restart                  |restart_flow_databladeVALIDATION_Blade_25.csv|
|                                   |                     (21.3289 MB/s)|
|CSV file                           |surface_flowdatabladeVALIDATION_Blade_25.csv|
|                                   |                     (20.5697 MB/s)|
+-----------------------------------------------------------------------+
+--------------------------------------+
|  Inner_Iter|   Time(sec)|    rms[Rho]|
+--------------------------------------+
|        3460|  1.2464e-01|   -6.782680|
|        3470|  1.2448e-01|   -6.774316|
|        3480|  1.2431e-01|   -6.791174|
|        3490|  1.2413e-01|   -6.801235|
|        3500|  1.2397e-01|   -6.796333|
+-----------------------------------------------------------------------+
|        File Writing Summary       |              Filename             |
+-----------------------------------------------------------------------+
|SU2 binary restart                 |restart_flow_databladeVALIDATION_Blade_25.dat|
|                                   |                     (13334.8 MB/s)|
|Paraview                           |volume_flow_databladeVALIDATION_Blade_25.vtu|
|                                   |                     (1131.94 MB/s)|
|Paraview surface                   |surface_flowdatabladeVALIDATION_Blade_25.vtu|
|                                   |                     (99.9569 MB/s)|
|SU2 ASCII restart                  |restart_flow_databladeVALIDATION_Blade_25.csv|
|                                   |                     (21.2713 MB/s)|
|CSV file                           |surface_flowdatabladeVALIDATION_Blade_25.csv|
|                                   |                     (19.6846 MB/s)|
+-----------------------------------------------------------------------+
+--------------------------------------+
|  Inner_Iter|   Time(sec)|    rms[Rho]|
+--------------------------------------+
|        3510|  1.2451e-01|   -6.786324|
|        3520|  1.2435e-01|   -6.817904|
|        3530|  1.2418e-01|   -6.828663|
|        3540|  1.2408e-01|   -6.827560|
|        3550|  1.2400e-01|   -6.845568|
+-----------------------------------------------------------------------+
|        File Writing Summary       |              Filename             |
+-----------------------------------------------------------------------+
|SU2 binary restart                 |restart_flow_databladeVALIDATION_Blade_25.dat|
|                                   |                     (1807.24 MB/s)|
|Paraview                           |volume_flow_databladeVALIDATION_Blade_25.vtu|
|                                   |                       (46.45 MB/s)|
|Paraview surface                   |surface_flowdatabladeVALIDATION_Blade_25.vtu|
|                                   |                     (5.22886 MB/s)|
|SU2 ASCII restart                  |restart_flow_databladeVALIDATION_Blade_25.csv|
|                                   |                     (20.6449 MB/s)|
|CSV file                           |surface_flowdatabladeVALIDATION_Blade_25.csv|
|                                   |                     (19.6651 MB/s)|
+-----------------------------------------------------------------------+
+--------------------------------------+
|  Inner_Iter|   Time(sec)|    rms[Rho]|
+--------------------------------------+
|        3560|  1.2462e-01|   -6.868410|
|        3570|  1.2448e-01|   -6.873056|
|        3580|  1.2436e-01|   -6.854345|
|        3590|  1.2426e-01|   -6.855071|
|        3600|  1.2412e-01|   -6.872951|
+-----------------------------------------------------------------------+
|        File Writing Summary       |              Filename             |
+-----------------------------------------------------------------------+
|SU2 binary restart                 |restart_flow_databladeVALIDATION_Blade_25.dat|
|                                   |                     (11932.2 MB/s)|
|Paraview                           |volume_flow_databladeVALIDATION_Blade_25.vtu|
|                                   |                      (1033.5 MB/s)|
|Paraview surface                   |surface_flowdatabladeVALIDATION_Blade_25.vtu|
|                                   |                      (100.94 MB/s)|
|SU2 ASCII restart                  |restart_flow_databladeVALIDATION_Blade_25.csv|
|                                   |                     (20.5629 MB/s)|
|CSV file                           |surface_flowdatabladeVALIDATION_Blade_25.csv|
|                                   |                     (19.1884 MB/s)|
+-----------------------------------------------------------------------+
+--------------------------------------+
|  Inner_Iter|   Time(sec)|    rms[Rho]|
+--------------------------------------+
|        3610|  1.2466e-01|   -6.864566|
|        3620|  1.2451e-01|   -6.891278|
|        3630|  1.2434e-01|   -6.896075|
|        3640|  1.2419e-01|   -6.893279|
|        3650|  1.2406e-01|   -6.891464|
+-----------------------------------------------------------------------+
|        File Writing Summary       |              Filename             |
+-----------------------------------------------------------------------+
|SU2 binary restart                 |restart_flow_databladeVALIDATION_Blade_25.dat|
|                                   |                     (12032.8 MB/s)|
|Paraview                           |volume_flow_databladeVALIDATION_Blade_25.vtu|
|                                   |                     (1055.53 MB/s)|
|Paraview surface                   |surface_flowdatabladeVALIDATION_Blade_25.vtu|
|                                   |                     (88.9977 MB/s)|
|SU2 ASCII restart                  |restart_flow_databladeVALIDATION_Blade_25.csv|
|                                   |                     (21.2313 MB/s)|
|CSV file                           |surface_flowdatabladeVALIDATION_Blade_25.csv|
|                                   |                     (19.3872 MB/s)|
+-----------------------------------------------------------------------+
+--------------------------------------+
|  Inner_Iter|   Time(sec)|    rms[Rho]|
+--------------------------------------+
|        3660|  1.2454e-01|   -6.910208|
|        3670|  1.2439e-01|   -6.911156|
|        3680|  1.2424e-01|   -6.903655|
|        3690|  1.2410e-01|   -6.914321|
|        3700|  1.2393e-01|   -6.938704|
+-----------------------------------------------------------------------+
|        File Writing Summary       |              Filename             |
+-----------------------------------------------------------------------+
|SU2 binary restart                 |restart_flow_databladeVALIDATION_Blade_25.dat|
|                                   |                     (12522.2 MB/s)|
|Paraview                           |volume_flow_databladeVALIDATION_Blade_25.vtu|
|                                   |                     (1028.91 MB/s)|
|Paraview surface                   |surface_flowdatabladeVALIDATION_Blade_25.vtu|
|                                   |                     (90.3045 MB/s)|
|SU2 ASCII restart                  |restart_flow_databladeVALIDATION_Blade_25.csv|
|                                   |                     (21.2713 MB/s)|
|CSV file                           |surface_flowdatabladeVALIDATION_Blade_25.csv|
|                                   |                     (21.4433 MB/s)|
+-----------------------------------------------------------------------+
+--------------------------------------+
|  Inner_Iter|   Time(sec)|    rms[Rho]|
+--------------------------------------+
|        3710|  1.2443e-01|   -6.941775|
|        3720|  1.2429e-01|   -6.940463|
|        3730|  1.2414e-01|   -6.966047|
|        3740|  1.2397e-01|   -6.975714|
|        3750|  1.2386e-01|   -6.931483|
+-----------------------------------------------------------------------+
|        File Writing Summary       |              Filename             |
+-----------------------------------------------------------------------+
|SU2 binary restart                 |restart_flow_databladeVALIDATION_Blade_25.dat|
|                                   |                     (10972.5 MB/s)|
|Paraview                           |volume_flow_databladeVALIDATION_Blade_25.vtu|
|                                   |                      (840.91 MB/s)|
|Paraview surface                   |surface_flowdatabladeVALIDATION_Blade_25.vtu|
|                                   |                      (92.197 MB/s)|
|SU2 ASCII restart                  |restart_flow_databladeVALIDATION_Blade_25.csv|
|                                   |                     (21.5599 MB/s)|
|CSV file                           |surface_flowdatabladeVALIDATION_Blade_25.csv|
|                                   |                     (21.7831 MB/s)|
+-----------------------------------------------------------------------+
+--------------------------------------+
|  Inner_Iter|   Time(sec)|    rms[Rho]|
+--------------------------------------+
|        3760|  1.2434e-01|   -6.954863|
|        3770|  1.2420e-01|   -6.932759|
|        3780|  1.2405e-01|   -6.954832|
|        3790|  1.2389e-01|   -6.968771|
|        3800|  1.2378e-01|   -6.936367|
+-----------------------------------------------------------------------+
|        File Writing Summary       |              Filename             |
+-----------------------------------------------------------------------+
|SU2 binary restart                 |restart_flow_databladeVALIDATION_Blade_25.dat|
|                                   |                       (12509 MB/s)|
|Paraview                           |volume_flow_databladeVALIDATION_Blade_25.vtu|
|                                   |                     (1111.24 MB/s)|
|Paraview surface                   |surface_flowdatabladeVALIDATION_Blade_25.vtu|
|                                   |                     (104.916 MB/s)|
|SU2 ASCII restart                  |restart_flow_databladeVALIDATION_Blade_25.csv|
|                                   |                     (20.9327 MB/s)|
|CSV file                           |surface_flowdatabladeVALIDATION_Blade_25.csv|
|                                   |                      (19.572 MB/s)|
+-----------------------------------------------------------------------+
+--------------------------------------+
|  Inner_Iter|   Time(sec)|    rms[Rho]|
+--------------------------------------+
|        3810|  1.2433e-01|   -6.948539|
|        3820|  1.2422e-01|   -6.954653|
|        3825|  1.2414e-01|   -7.002366|

----------------------------- Solver Exit -------------------------------
All convergence criteria satisfied.
+-----------------------------------------------------------------------+
|      Convergence Field     |     Value    |   Criterion  |  Converged |
+-----------------------------------------------------------------------+
|                    rms[Rho]|      -7.00237|          < -7|         Yes|
+-----------------------------------------------------------------------+
-------------------------------------------------------------------------
+-----------------------------------------------------------------------+
|        File Writing Summary       |              Filename             |
+-----------------------------------------------------------------------+
|SU2 binary restart                 |restart_flow_databladeVALIDATION_Blade_25.dat|
|                                   |                       (11378 MB/s)|
|Paraview                           |volume_flow_databladeVALIDATION_Blade_25.vtu|
|                                   |                     (1103.76 MB/s)|
|Paraview surface                   |surface_flowdatabladeVALIDATION_Blade_25.vtu|
|                                   |                     (85.1112 MB/s)|
|SU2 ASCII restart                  |restart_flow_databladeVALIDATION_Blade_25.csv|
|                                   |                     (21.2445 MB/s)|
|CSV file                           |surface_flowdatabladeVALIDATION_Blade_25.csv|
|                                   |                     (19.6736 MB/s)|
+-----------------------------------------------------------------------+

--------------------------- Finalizing Solver ---------------------------
Deleted CNumerics container.
Deleted CIntegration container.
Deleted CSolver container.
Deleted CIteration container.
Deleted CInterface container.
Deleted CGeometry container.
Deleted CFreeFormDefBox class.
Deleted CSurfaceMovement class.
Deleted CVolumetricMovement class.
Deleted CConfig container.
Deleted nInst container.
Deleted COutput class.
-------------------------------------------------------------------------


-------------------------- Performance Summary --------------------------
Simulation totals:
   Wall-clock time (hrs):    0.132723 |            Core-hrs:     1.59268
                   Cores:          12 |          DOFs/point:           5
             Points/core:     5223.67 |   Ghost points/core:     164.167
 Ghost/Owned Point Ratio:   0.0314275 | 

Preprocessing phase:
       Preproc. Time (s):    0.462044 |   Preproc. Time (%):   0.0967017

Compute phase:
        Compute Time (s):     474.961 |    Compute Time (%):     99.4053
         Iteration count:        3826 |         Avg. s/iter:     0.12414
     Core-s/iter/Mpoints:     23.0409 |           Mpoints/s:    0.520813

Output phase:
         Output Time (s):     2.37945 |     Output Time (%):    0.497998
            Output count:           1 |       Avg. s/output:     2.37945
 Restart Aggr. BW (MB/s):      871608 |           MB/s/core:       72634
-------------------------------------------------------------------------


------------------------- Exit Success (SU2_CFD) ------------------------

