
-------------------------------------------------------------------------
|    ___ _   _ ___                                                      |
|   / __| | | |_  )   Release 8.0.1 "Harrier"                           |
|   \__ \ |_| |/ /                                                      |
|   |___/\___//___|   Suite (Computational Fluid Dynamics Code)         |
|                                                                       |
-------------------------------------------------------------------------
| SU2 Project Website: https://su2code.github.io                        |
|                                                                       |
| The SU2 Project is maintained by the SU2 Foundation                   |
| (http://su2foundation.org)                                            |
-------------------------------------------------------------------------
| Copyright 2012-2024, SU2 Contributors                                 |
|                                                                       |
| SU2 is free software; you can redistribute it and/or                  |
| modify it under the terms of the GNU Lesser General Public            |
| License as published by the Free Software Foundation; either          |
| version 2.1 of the License, or (at your option) any later version.    |
|                                                                       |
| SU2 is distributed in the hope that it will be useful,                |
| but WITHOUT ANY WARRANTY; without even the implied warranty of        |
| MERCHANTABILITY or FITNESS FOR A PARTICULAR PURPOSE. See the GNU      |
| Lesser General Public License for more details.                       |
|                                                                       |
| You should have received a copy of the GNU Lesser General Public      |
| License along with SU2. If not, see <http://www.gnu.org/licenses/>.   |
-------------------------------------------------------------------------

Parsing config file for zone 0

----------------- Physical Case Definition ( Zone 0 ) -------------------
Compressible RANS equations.
Turbulence model: Spalart-Allmaras-noft2-BCM
Hybrid RANS/LES: No Hybrid RANS/LES
Mach number: 0.6.
Angle of attack (AoA): 0 deg, and angle of sideslip (AoS): 0 deg.
Reynolds number: 600000. Reference length 1.00258.
No restart solution, use the values at infinity (freestream).
Dimensional simulation.
The reference area will be computed using y(2D) or z(3D) projection.
The semi-span will be computed using the max y(3D) value.
The reference length is 1.00258 m.
Reference origin for moment evaluation is (0, 0, 0).
Surface(s) where the force coefficients are evaluated: blade1.

Surface(s) plotted in the output file: blade1.
Surface(s) to be analyzed in detail: inlet, outlet, blade1.
Input mesh file name: cascade2D_databladeVALIDATION_Blade_9.su2

--------------- Space Numerical Integration ( Zone 0 ) ------------------
Jameson-Schmidt-Turkel scheme (2nd order in space) for the flow inviscid terms.
JST viscous coefficients (2nd & 4th): 0.5, 0.02.
The method includes a grid stretching correction (p = 0.3).
Scalar upwind solver for the turbulence model.
First order integration in space.
Average of gradients with correction (viscous flow terms).
Average of gradients with correction (viscous turbulence terms).
Gradient for upwind reconstruction: inverse-distance weighted Least-Squares.
Gradient for viscous and source terms: inverse-distance weighted Least-Squares.

--------------- Time Numerical Integration  ( Zone 0 ) ------------------
Local time stepping (steady state simulation).
Euler implicit method for the flow equations.
FGMRES is used for solving the linear system.
Using a LU-SGS preconditioning.
Convergence criteria of the linear solver: 0.0001.
Max number of linear iterations: 10.
V Multigrid Cycle, with 3 multigrid levels.
Damping factor for the residual restriction: 0.75.
Damping factor for the correction prolongation: 0.75.
CFL adaptation. Factor down: 0.1, factor up: 1.2,
                lower limit: 0.1, upper limit: 100,
                acceptable linear residual: 0.001.
+-------------------------------------------+
|  MG Level| Presmooth|PostSmooth|CorrectSmo|
+-------------------------------------------+
|         0|         1|         0|         1|
|         1|         2|         2|         2|
|         2|         3|         3|         3|
|         3|         3|         0|         0|
+-------------------------------------------+
Courant-Friedrichs-Lewy number:       12
Euler implicit time integration for the turbulence model.

------------------ Convergence Criteria  ( Zone 0 ) ---------------------
Maximum number of solver subiterations: 7000.
Begin convergence monitoring at iteration 500.
Residual minimum value: 1e-7.
Cauchy series min. value: 1e-10.
Number of Cauchy elements: 100.
Begin windowed time average at iteration 0.

-------------------- Output Information ( Zone 0 ) ----------------------
File writing frequency: 
+------------------------------------+
|                     File| Frequency|
+------------------------------------+
|                  RESTART|        50|
|                 PARAVIEW|        50|
|         SURFACE_PARAVIEW|        50|
|                      CSV|        50|
|              SURFACE_CSV|        50|
+------------------------------------+
Writing the convergence history file every 1 inner iterations.
Writing the screen convergence history every 10 inner iterations.
The tabular file format is CSV (.csv).
Convergence history file name: history_databladeVALIDATION_Blade_9.
Forces breakdown file name: forces_breakdown.dat.
Surface file name: surface_flowdatabladeVALIDATION_Blade_9.
Volume file name: volume_flow_databladeVALIDATION_Blade_9.
Restart file name: restart_flow_databladeVALIDATION_Blade_9.dat.

------------- Config File Boundary Information ( Zone 0 ) ---------------
+-----------------------------------------------------------------------+
|                        Marker Type|                        Marker Name|
+-----------------------------------------------------------------------+
|                  Periodic boundary|               symmetricWallsBOTTOM|
|                                   |                  symmetricWallsTOP|
+-----------------------------------------------------------------------+
|                     Inlet boundary|                              inlet|
+-----------------------------------------------------------------------+
|                    Outlet boundary|                             outlet|
+-----------------------------------------------------------------------+
|                     Heat flux wall|                             blade1|
|                                   |                             blade2|
+-----------------------------------------------------------------------+

-------------------- Output Preprocessing ( Zone 0 ) --------------------
  Info: Ignoring the following screen output fields:
  LINSOL_ITER_TRANS, LINSOL_RESIDUAL_TRANS
Screen output fields: INNER_ITER, WALL_TIME, RMS_DENSITY
  Info: Ignoring the following history output groups:
  RMS_TKE, RMS_DISSIPATION
History output group(s): INNER_ITER, WALL_TIME, RMS_DENSITY, RMS_MOMENTUM-X, RMS_ENERGY, LINSOL, CFL_NUMBER, FLOW_COEFF_SURF, AERO_COEFF_SURF
Convergence field(s): RMS_DENSITY
Warning: No (valid) fields chosen for time convergence monitoring. Time convergence monitoring inactive.
Volume output fields: COORDINATES, SOLUTION, PRIMITIVE, RESIDUAL, TIMESTEP, MESH_QUALITY, VORTEX_IDENTIFICATION

------------------- Geometry Preprocessing ( Zone 0 ) -------------------
Two dimensional problem.
64239 grid points before partitioning.
98302 volume elements before partitioning.
5 surface markers.
23 boundary elements in index 0 (Marker = inlet).
240 boundary elements in index 1 (Marker = symmetricWallsBOTTOM).
240 boundary elements in index 2 (Marker = symmetricWallsTOP).
23 boundary elements in index 3 (Marker = outlet).
1186 boundary elements in index 4 (Marker = blade1).
Executing the partitioning functions.
Building the graph adjacency structure.
Calling ParMETIS... graph partitioning complete (1627 edge cuts).
Distributing ParMETIS coloring.
Rebalancing vertices.
Rebalancing volume element connectivity.
Rebalancing markers and surface elements.
66226 vertices including ghost points. 
99919 interior elements including halo cells. 
71109 triangles.
28810 quadrilaterals.
Establishing MPI communication patterns.
Setting point connectivity.
Renumbering points (Reverse Cuthill McKee Ordering).
Recomputing point connectivity.
Setting element connectivity.
Checking the numerical grid orientation.
All volume elements are correctly orientend.
There has been a re-orientation of 866 LINE surface elements.
Identifying edges and vertices.
Setting the control volume structure.
Area of the computational grid: 3.15933.
Searching for the closest normal neighbors to the surfaces.
Storing a mapping from global to local point index.
Compute the surface curvature.
Max K: 135.469. Mean K: 5.1194. Standard deviation K: 16.8141.
Checking for periodicity.
WARNING: Periodicity has been detected. Disabling multigrid. 
Computing mesh quality statistics for the dual control volumes.
+--------------------------------------------------------------+
|           Mesh Quality Metric|        Minimum|        Maximum|
+--------------------------------------------------------------+
|    Orthogonality Angle (deg.)|        67.4681|             90|
|     CV Face Area Aspect Ratio|        1.00055|        224.713|
|           CV Sub-Volume Ratio|              1|        18.2351|
+--------------------------------------------------------------+
Finding max control volume width.
Communicating number of neighbors.
Reference length = 1.01304 m.
Wetted area = 2.50457 m.
Area projection in the x-plane = 0.646365 m, y-plane = 1.01304 m.
Max. coordinate in the x-direction = 1.01306 m, y-direction = 0.585937 m.
Min. coordinate in the x-direction = 0 m, y-direction = -0.0604298 m.
Matching the periodic boundary points for marker pair 1.
 Matched 482 points with a max distance of: 8.27512e-14.
Computing wall distances.

-------------------- Solver Preprocessing ( Zone 0 ) --------------------
Viscous flow: Computing pressure using the ideal gas law
based on the free-stream temperature and a density computed
from the Reynolds number.
Force coefficients computed using free-stream values.

-- Models:
+------------------------------------------------------------------------------+
|          Viscosity Model|        Conductivity Model|              Fluid Model|
+------------------------------------------------------------------------------+
|               SUTHERLAND|          CONSTANT_PRANDTL|                IDEAL_GAS|
+------------------------------------------------------------------------------+
-- Fluid properties:
+------------------------------------------------------------------------------+
|                  Name|    Dim. value|    Ref. value|      Unit|Non-dim. value|
+------------------------------------------------------------------------------+
|        Ref. Viscosity|     1.716e-05|             1|   N.s/m^2|     1.716e-05|
|      Sutherland Temp.|        273.15|             1|         K|        273.15|
|     Sutherland Const.|         110.4|             1|         K|         110.4|
+------------------------------------------------------------------------------+
|        Prandtl (Lam.)|             -|             -|         -|          0.72|
|       Prandtl (Turb.)|             -|             -|         -|           0.9|
+------------------------------------------------------------------------------+
|          Gas Constant|       287.058|             1|  N.m/kg.K|       287.058|
|      Spec. Heat Ratio|             -|             -|         -|           1.4|
+------------------------------------------------------------------------------+
-- Initial and free-stream conditions:
+------------------------------------------------------------------------------+
|                  Name|    Dim. value|    Ref. value|      Unit|Non-dim. value|
+------------------------------------------------------------------------------+
|       Static Pressure|       4566.39|             1|        Pa|       4566.39|
|               Density|     0.0530252|             1|    kg/m^3|     0.0530252|
|           Temperature|           300|             1|         K|           300|
|          Total Energy|        236995|             1|   m^2/s^2|        236995|
|            Velocity-X|       208.334|             1|       m/s|       208.334|
|            Velocity-Y|             0|             1|       m/s|             0|
|    Velocity Magnitude|       208.334|             1|       m/s|       208.334|
+------------------------------------------------------------------------------+
|             Viscosity|   1.84592e-05|             1|   N.s/m^2|   1.84592e-05|
|          Conductivity|             -|             1|   W/m^2.K|             -|
|     Turb. Kin. Energy|       79.7533|             1|   m^2/s^2|       79.7533|
|     Spec. Dissipation|   2.29097e+06|             1|       1/s|   2.29097e+06|
+------------------------------------------------------------------------------+
|           Mach Number|             -|             -|         -|           0.6|
|       Reynolds Number|             -|             -|         -|        600000|
+------------------------------------------------------------------------------+
Initialize Jacobian structure (Navier-Stokes). MG level: 0.
Initialize Jacobian structure (SA model).

------------------- Numerics Preprocessing ( Zone 0 ) -------------------

----------------- Integration Preprocessing ( Zone 0 ) ------------------

------------------- Iteration Preprocessing ( Zone 0 ) ------------------
Euler/Navier-Stokes/RANS fluid iteration.

------------------------------ Begin Solver -----------------------------

Simulation Run using the Single-zone Driver
WARNING: SU2 was not compiled for an AVX-capable architecture. Performance could be better,
         see https://su2code.github.io/docs_v7/Build-SU2-Linux-MacOS/#compiler-optimizations
+--------------------------------------+
|  Inner_Iter|   Time(sec)|    rms[Rho]|
+--------------------------------------+
|           0|  1.0508e-01|   -2.733432|
|          10|  8.1120e-02|   -3.313585|
|          20|  8.8977e-02|   -3.250044|
|          30|  9.0829e-02|   -3.165173|
|          40|  8.8285e-02|   -3.190276|
|          50|  9.5337e-02|   -3.088017|
+-----------------------------------------------------------------------+
|        File Writing Summary       |              Filename             |
+-----------------------------------------------------------------------+
|SU2 binary restart                 |restart_flow_databladeVALIDATION_Blade_9.dat|
|                                   |                      (1169.4 MB/s)|
|Paraview                           |volume_flow_databladeVALIDATION_Blade_9.vtu|
|                                   |                     (360.999 MB/s)|
|Paraview surface                   |surface_flowdatabladeVALIDATION_Blade_9.vtu|
|                                   |                     (65.6749 MB/s)|
|SU2 ASCII restart                  |restart_flow_databladeVALIDATION_Blade_9.csv|
|                                   |                     (20.3541 MB/s)|
|CSV file                           |surface_flowdatabladeVALIDATION_Blade_9.csv|
|                                   |                     (19.3572 MB/s)|
+-----------------------------------------------------------------------+
+--------------------------------------+
|  Inner_Iter|   Time(sec)|    rms[Rho]|
+--------------------------------------+
|          60|  1.5053e-01|   -3.178757|
|          70|  1.4462e-01|   -3.304491|
|          80|  1.4523e-01|   -3.345399|
|          90|  1.4162e-01|   -3.232992|
|         100|  1.3636e-01|   -3.201761|
+-----------------------------------------------------------------------+
|        File Writing Summary       |              Filename             |
+-----------------------------------------------------------------------+
|SU2 binary restart                 |restart_flow_databladeVALIDATION_Blade_9.dat|
|                                   |                     (11918.8 MB/s)|
|Paraview                           |volume_flow_databladeVALIDATION_Blade_9.vtu|
|                                   |                     (829.345 MB/s)|
|Paraview surface                   |surface_flowdatabladeVALIDATION_Blade_9.vtu|
|                                   |                     (60.6033 MB/s)|
|SU2 ASCII restart                  |restart_flow_databladeVALIDATION_Blade_9.csv|
|                                   |                     (19.2772 MB/s)|
|CSV file                           |surface_flowdatabladeVALIDATION_Blade_9.csv|
|                                   |                     (21.0318 MB/s)|
+-----------------------------------------------------------------------+
+--------------------------------------+
|  Inner_Iter|   Time(sec)|    rms[Rho]|
+--------------------------------------+
|         110|  1.5756e-01|   -3.225704|
|         120|  1.5507e-01|   -3.244130|
|         130|  1.5115e-01|   -3.294972|
|         140|  1.4820e-01|   -3.334164|
|         150|  1.4715e-01|   -3.387778|
+-----------------------------------------------------------------------+
|        File Writing Summary       |              Filename             |
+-----------------------------------------------------------------------+
|SU2 binary restart                 |restart_flow_databladeVALIDATION_Blade_9.dat|
|                                   |                     (1382.85 MB/s)|
|Paraview                           |volume_flow_databladeVALIDATION_Blade_9.vtu|
|                                   |                      (539.83 MB/s)|
|Paraview surface                   |surface_flowdatabladeVALIDATION_Blade_9.vtu|
|                                   |                     (20.8637 MB/s)|
|SU2 ASCII restart                  |restart_flow_databladeVALIDATION_Blade_9.csv|
|                                   |                     (19.2713 MB/s)|
|CSV file                           |surface_flowdatabladeVALIDATION_Blade_9.csv|
|                                   |                     (16.6796 MB/s)|
+-----------------------------------------------------------------------+
+--------------------------------------+
|  Inner_Iter|   Time(sec)|    rms[Rho]|
+--------------------------------------+
|         160|  1.6066e-01|   -3.385784|
|         170|  1.5712e-01|   -3.290823|
|         180|  1.5723e-01|   -3.315723|
|         190|  1.5532e-01|   -3.206158|
|         200|  1.5658e-01|   -3.201270|
+-----------------------------------------------------------------------+
|        File Writing Summary       |              Filename             |
+-----------------------------------------------------------------------+
|SU2 binary restart                 |restart_flow_databladeVALIDATION_Blade_9.dat|
|                                   |                      (1184.4 MB/s)|
|Paraview                           |volume_flow_databladeVALIDATION_Blade_9.vtu|
|                                   |                     (172.395 MB/s)|
|Paraview surface                   |surface_flowdatabladeVALIDATION_Blade_9.vtu|
|                                   |                     (31.5104 MB/s)|
|SU2 ASCII restart                  |restart_flow_databladeVALIDATION_Blade_9.csv|
|                                   |                     (18.2262 MB/s)|
|CSV file                           |surface_flowdatabladeVALIDATION_Blade_9.csv|
|                                   |                     (20.1618 MB/s)|
+-----------------------------------------------------------------------+
+--------------------------------------+
|  Inner_Iter|   Time(sec)|    rms[Rho]|
+--------------------------------------+
|         210|  1.6737e-01|   -3.362265|
|         220|  1.6432e-01|   -3.434409|
|         230|  1.6418e-01|   -3.505547|
|         240|  1.6258e-01|   -3.534511|
|         250|  1.6008e-01|   -3.596319|
+-----------------------------------------------------------------------+
|        File Writing Summary       |              Filename             |
+-----------------------------------------------------------------------+
|SU2 binary restart                 |restart_flow_databladeVALIDATION_Blade_9.dat|
|                                   |                     (9618.82 MB/s)|
|Paraview                           |volume_flow_databladeVALIDATION_Blade_9.vtu|
|                                   |                     (418.988 MB/s)|
|Paraview surface                   |surface_flowdatabladeVALIDATION_Blade_9.vtu|
|                                   |                     (20.6788 MB/s)|
|SU2 ASCII restart                  |restart_flow_databladeVALIDATION_Blade_9.csv|
|                                   |                     (19.3787 MB/s)|
|CSV file                           |surface_flowdatabladeVALIDATION_Blade_9.csv|
|                                   |                     (18.9818 MB/s)|
+-----------------------------------------------------------------------+
+--------------------------------------+
|  Inner_Iter|   Time(sec)|    rms[Rho]|
+--------------------------------------+
|         260|  1.6800e-01|   -3.654229|
|         270|  1.6713e-01|   -3.675077|
|         280|  1.6484e-01|   -3.666822|
|         290|  1.6210e-01|   -3.668255|
|         300|  1.6124e-01|   -3.671642|
+-----------------------------------------------------------------------+
|        File Writing Summary       |              Filename             |
+-----------------------------------------------------------------------+
|SU2 binary restart                 |restart_flow_databladeVALIDATION_Blade_9.dat|
|                                   |                     (2328.56 MB/s)|
|Paraview                           |volume_flow_databladeVALIDATION_Blade_9.vtu|
|                                   |                     (352.866 MB/s)|
|Paraview surface                   |surface_flowdatabladeVALIDATION_Blade_9.vtu|
|                                   |                     (32.4245 MB/s)|
|SU2 ASCII restart                  |restart_flow_databladeVALIDATION_Blade_9.csv|
|                                   |                     (19.0251 MB/s)|
|CSV file                           |surface_flowdatabladeVALIDATION_Blade_9.csv|
|                                   |                     (19.3322 MB/s)|
+-----------------------------------------------------------------------+
+--------------------------------------+
|  Inner_Iter|   Time(sec)|    rms[Rho]|
+--------------------------------------+
|         310|  1.6800e-01|   -3.600548|
|         320|  1.6569e-01|   -3.665982|
|         330|  1.6504e-01|   -3.693151|
|         340|  1.6408e-01|   -3.656307|
|         350|  1.6255e-01|   -3.714796|
+-----------------------------------------------------------------------+
|        File Writing Summary       |              Filename             |
+-----------------------------------------------------------------------+
|SU2 binary restart                 |restart_flow_databladeVALIDATION_Blade_9.dat|
|                                   |                     (939.966 MB/s)|
|Paraview                           |volume_flow_databladeVALIDATION_Blade_9.vtu|
|                                   |                     (335.792 MB/s)|
|Paraview surface                   |surface_flowdatabladeVALIDATION_Blade_9.vtu|
|                                   |                      (47.686 MB/s)|
|SU2 ASCII restart                  |restart_flow_databladeVALIDATION_Blade_9.csv|
|                                   |                      (18.934 MB/s)|
|CSV file                           |surface_flowdatabladeVALIDATION_Blade_9.csv|
|                                   |                     (19.7574 MB/s)|
+-----------------------------------------------------------------------+
+--------------------------------------+
|  Inner_Iter|   Time(sec)|    rms[Rho]|
+--------------------------------------+
|         360|  1.6941e-01|   -3.807366|
|         370|  1.6778e-01|   -3.816587|
|         380|  1.6703e-01|   -3.757909|
|         390|  1.6705e-01|   -3.827931|
|         400|  1.6602e-01|   -3.815206|
+-----------------------------------------------------------------------+
|        File Writing Summary       |              Filename             |
+-----------------------------------------------------------------------+
|SU2 binary restart                 |restart_flow_databladeVALIDATION_Blade_9.dat|
|                                   |                      (2310.4 MB/s)|
|Paraview                           |volume_flow_databladeVALIDATION_Blade_9.vtu|
|                                   |                     (561.457 MB/s)|
|Paraview surface                   |surface_flowdatabladeVALIDATION_Blade_9.vtu|
|                                   |                     (33.7363 MB/s)|
|SU2 ASCII restart                  |restart_flow_databladeVALIDATION_Blade_9.csv|
|                                   |                     (19.6804 MB/s)|
|CSV file                           |surface_flowdatabladeVALIDATION_Blade_9.csv|
|                                   |                     (19.3115 MB/s)|
+-----------------------------------------------------------------------+
+--------------------------------------+
|  Inner_Iter|   Time(sec)|    rms[Rho]|
+--------------------------------------+
|         410|  1.7256e-01|   -3.765949|
|         420|  1.7075e-01|   -3.823076|
|         430|  1.6866e-01|   -3.846459|
|         440|  1.6654e-01|   -3.852304|
|         450|  1.6478e-01|   -3.832186|
+-----------------------------------------------------------------------+
|        File Writing Summary       |              Filename             |
+-----------------------------------------------------------------------+
|SU2 binary restart                 |restart_flow_databladeVALIDATION_Blade_9.dat|
|                                   |                     (12668.8 MB/s)|
|Paraview                           |volume_flow_databladeVALIDATION_Blade_9.vtu|
|                                   |                     (854.873 MB/s)|
|Paraview surface                   |surface_flowdatabladeVALIDATION_Blade_9.vtu|
|                                   |                     (91.3378 MB/s)|
|SU2 ASCII restart                  |restart_flow_databladeVALIDATION_Blade_9.csv|
|                                   |                     (21.2388 MB/s)|
|CSV file                           |surface_flowdatabladeVALIDATION_Blade_9.csv|
|                                   |                     (20.2924 MB/s)|
+-----------------------------------------------------------------------+
+--------------------------------------+
|  Inner_Iter|   Time(sec)|    rms[Rho]|
+--------------------------------------+
|         460|  1.6840e-01|   -3.834813|
|         470|  1.6631e-01|   -3.850902|
|         480|  1.6467e-01|   -3.834132|
|         490|  1.6325e-01|   -3.839202|
|         500|  1.6146e-01|   -3.865263|
+-----------------------------------------------------------------------+
|        File Writing Summary       |              Filename             |
+-----------------------------------------------------------------------+
|SU2 binary restart                 |restart_flow_databladeVALIDATION_Blade_9.dat|
|                                   |                     (10576.7 MB/s)|
|Paraview                           |volume_flow_databladeVALIDATION_Blade_9.vtu|
|                                   |                     (963.715 MB/s)|
|Paraview surface                   |surface_flowdatabladeVALIDATION_Blade_9.vtu|
|                                   |                     (90.6202 MB/s)|
|SU2 ASCII restart                  |restart_flow_databladeVALIDATION_Blade_9.csv|
|                                   |                      (20.648 MB/s)|
|CSV file                           |surface_flowdatabladeVALIDATION_Blade_9.csv|
|                                   |                     (21.2993 MB/s)|
+-----------------------------------------------------------------------+
+--------------------------------------+
|  Inner_Iter|   Time(sec)|    rms[Rho]|
+--------------------------------------+
|         510|  1.6480e-01|   -3.868175|
|         520|  1.6339e-01|   -3.861759|
|         530|  1.6197e-01|   -3.901557|
|         540|  1.6039e-01|   -3.908196|
|         550|  1.5904e-01|   -3.908428|
+-----------------------------------------------------------------------+
|        File Writing Summary       |              Filename             |
+-----------------------------------------------------------------------+
|SU2 binary restart                 |restart_flow_databladeVALIDATION_Blade_9.dat|
|                                   |                     (10301.3 MB/s)|
|Paraview                           |volume_flow_databladeVALIDATION_Blade_9.vtu|
|                                   |                     (863.236 MB/s)|
|Paraview surface                   |surface_flowdatabladeVALIDATION_Blade_9.vtu|
|                                   |                     (86.3953 MB/s)|
|SU2 ASCII restart                  |restart_flow_databladeVALIDATION_Blade_9.csv|
|                                   |                     (20.5871 MB/s)|
|CSV file                           |surface_flowdatabladeVALIDATION_Blade_9.csv|
|                                   |                      (19.065 MB/s)|
+-----------------------------------------------------------------------+
+--------------------------------------+
|  Inner_Iter|   Time(sec)|    rms[Rho]|
+--------------------------------------+
|         560|  1.6233e-01|   -3.885512|
|         570|  1.6106e-01|   -3.910658|
|         580|  1.5970e-01|   -3.922518|
|         590|  1.5848e-01|   -3.923300|
|         600|  1.5738e-01|   -3.933437|
+-----------------------------------------------------------------------+
|        File Writing Summary       |              Filename             |
+-----------------------------------------------------------------------+
|SU2 binary restart                 |restart_flow_databladeVALIDATION_Blade_9.dat|
|                                   |                     (12335.5 MB/s)|
|Paraview                           |volume_flow_databladeVALIDATION_Blade_9.vtu|
|                                   |                      (936.36 MB/s)|
|Paraview surface                   |surface_flowdatabladeVALIDATION_Blade_9.vtu|
|                                   |                     (92.3171 MB/s)|
|SU2 ASCII restart                  |restart_flow_databladeVALIDATION_Blade_9.csv|
|                                   |                     (21.3089 MB/s)|
|CSV file                           |surface_flowdatabladeVALIDATION_Blade_9.csv|
|                                   |                     (19.6757 MB/s)|
+-----------------------------------------------------------------------+
+--------------------------------------+
|  Inner_Iter|   Time(sec)|    rms[Rho]|
+--------------------------------------+
|         610|  1.6045e-01|   -3.972503|
|         620|  1.5933e-01|   -4.011649|
|         630|  1.5814e-01|   -4.040068|
|         640|  1.5685e-01|   -4.071336|
|         650|  1.5575e-01|   -4.069642|
+-----------------------------------------------------------------------+
|        File Writing Summary       |              Filename             |
+-----------------------------------------------------------------------+
|SU2 binary restart                 |restart_flow_databladeVALIDATION_Blade_9.dat|
|                                   |                       (11450 MB/s)|
|Paraview                           |volume_flow_databladeVALIDATION_Blade_9.vtu|
|                                   |                      (850.29 MB/s)|
|Paraview surface                   |surface_flowdatabladeVALIDATION_Blade_9.vtu|
|                                   |                     (55.9858 MB/s)|
|SU2 ASCII restart                  |restart_flow_databladeVALIDATION_Blade_9.csv|
|                                   |                     (20.8071 MB/s)|
|CSV file                           |surface_flowdatabladeVALIDATION_Blade_9.csv|
|                                   |                     (21.4071 MB/s)|
+-----------------------------------------------------------------------+
+--------------------------------------+
|  Inner_Iter|   Time(sec)|    rms[Rho]|
+--------------------------------------+
|         660|  1.5857e-01|   -4.047284|
|         670|  1.5770e-01|   -4.080649|
|         680|  1.5660e-01|   -4.135128|
|         690|  1.5557e-01|   -4.132559|
|         700|  1.5459e-01|   -4.149751|
+-----------------------------------------------------------------------+
|        File Writing Summary       |              Filename             |
+-----------------------------------------------------------------------+
|SU2 binary restart                 |restart_flow_databladeVALIDATION_Blade_9.dat|
|                                   |                     (11323.2 MB/s)|
|Paraview                           |volume_flow_databladeVALIDATION_Blade_9.vtu|
|                                   |                     (939.319 MB/s)|
|Paraview surface                   |surface_flowdatabladeVALIDATION_Blade_9.vtu|
|                                   |                     (109.202 MB/s)|
|SU2 ASCII restart                  |restart_flow_databladeVALIDATION_Blade_9.csv|
|                                   |                     (21.1498 MB/s)|
|CSV file                           |surface_flowdatabladeVALIDATION_Blade_9.csv|
|                                   |                     (19.7983 MB/s)|
+-----------------------------------------------------------------------+
+--------------------------------------+
|  Inner_Iter|   Time(sec)|    rms[Rho]|
+--------------------------------------+
|         710|  1.5692e-01|   -4.191491|
|         720|  1.5586e-01|   -4.195914|
|         730|  1.5496e-01|   -4.171443|
|         740|  1.5402e-01|   -4.195440|
|         750|  1.5310e-01|   -4.212430|
+-----------------------------------------------------------------------+
|        File Writing Summary       |              Filename             |
+-----------------------------------------------------------------------+
|SU2 binary restart                 |restart_flow_databladeVALIDATION_Blade_9.dat|
|                                   |                     (12448.6 MB/s)|
|Paraview                           |volume_flow_databladeVALIDATION_Blade_9.vtu|
|                                   |                     (809.967 MB/s)|
|Paraview surface                   |surface_flowdatabladeVALIDATION_Blade_9.vtu|
|                                   |                     (93.8991 MB/s)|
|SU2 ASCII restart                  |restart_flow_databladeVALIDATION_Blade_9.csv|
|                                   |                     (20.9248 MB/s)|
|CSV file                           |surface_flowdatabladeVALIDATION_Blade_9.csv|
|                                   |                      (19.604 MB/s)|
+-----------------------------------------------------------------------+
+--------------------------------------+
|  Inner_Iter|   Time(sec)|    rms[Rho]|
+--------------------------------------+
|         760|  1.5546e-01|   -4.186051|
|         770|  1.5460e-01|   -4.139554|
|         780|  1.5366e-01|   -4.195158|
|         790|  1.5272e-01|   -4.209899|
|         800|  1.5200e-01|   -4.201051|
+-----------------------------------------------------------------------+
|        File Writing Summary       |              Filename             |
+-----------------------------------------------------------------------+
|SU2 binary restart                 |restart_flow_databladeVALIDATION_Blade_9.dat|
|                                   |                     (10754.3 MB/s)|
|Paraview                           |volume_flow_databladeVALIDATION_Blade_9.vtu|
|                                   |                      (838.34 MB/s)|
|Paraview surface                   |surface_flowdatabladeVALIDATION_Blade_9.vtu|
|                                   |                     (93.2202 MB/s)|
|SU2 ASCII restart                  |restart_flow_databladeVALIDATION_Blade_9.csv|
|                                   |                     (20.6027 MB/s)|
|CSV file                           |surface_flowdatabladeVALIDATION_Blade_9.csv|
|                                   |                     (18.8272 MB/s)|
+-----------------------------------------------------------------------+
+--------------------------------------+
|  Inner_Iter|   Time(sec)|    rms[Rho]|
+--------------------------------------+
|         810|  1.5443e-01|   -4.181478|
|         820|  1.5356e-01|   -4.201244|
|         830|  1.5274e-01|   -4.176219|
|         840|  1.5198e-01|   -4.157497|
|         850|  1.5111e-01|   -4.210064|
+-----------------------------------------------------------------------+
|        File Writing Summary       |              Filename             |
+-----------------------------------------------------------------------+
|SU2 binary restart                 |restart_flow_databladeVALIDATION_Blade_9.dat|
|                                   |                     (12539.6 MB/s)|
|Paraview                           |volume_flow_databladeVALIDATION_Blade_9.vtu|
|                                   |                     (950.865 MB/s)|
|Paraview surface                   |surface_flowdatabladeVALIDATION_Blade_9.vtu|
|                                   |                     (78.4122 MB/s)|
|SU2 ASCII restart                  |restart_flow_databladeVALIDATION_Blade_9.csv|
|                                   |                     (20.9185 MB/s)|
|CSV file                           |surface_flowdatabladeVALIDATION_Blade_9.csv|
|                                   |                     (17.9717 MB/s)|
+-----------------------------------------------------------------------+
+--------------------------------------+
|  Inner_Iter|   Time(sec)|    rms[Rho]|
+--------------------------------------+
|         860|  1.5316e-01|   -4.211770|
|         870|  1.5238e-01|   -4.185965|
|         880|  1.5168e-01|   -4.207920|
|         890|  1.5088e-01|   -4.249848|
|         900|  1.5013e-01|   -4.255918|
+-----------------------------------------------------------------------+
|        File Writing Summary       |              Filename             |
+-----------------------------------------------------------------------+
|SU2 binary restart                 |restart_flow_databladeVALIDATION_Blade_9.dat|
|                                   |                     (9699.63 MB/s)|
|Paraview                           |volume_flow_databladeVALIDATION_Blade_9.vtu|
|                                   |                     (978.517 MB/s)|
|Paraview surface                   |surface_flowdatabladeVALIDATION_Blade_9.vtu|
|                                   |                     (69.1623 MB/s)|
|SU2 ASCII restart                  |restart_flow_databladeVALIDATION_Blade_9.csv|
|                                   |                     (20.7752 MB/s)|
|CSV file                           |surface_flowdatabladeVALIDATION_Blade_9.csv|
|                                   |                     (21.5397 MB/s)|
+-----------------------------------------------------------------------+
+--------------------------------------+
|  Inner_Iter|   Time(sec)|    rms[Rho]|
+--------------------------------------+
|         910|  1.5216e-01|   -4.238613|
|         920|  1.5139e-01|   -4.281757|
|         930|  1.5070e-01|   -4.256288|
|         940|  1.5004e-01|   -4.231912|
|         950|  1.4929e-01|   -4.279395|
+-----------------------------------------------------------------------+
|        File Writing Summary       |              Filename             |
+-----------------------------------------------------------------------+
|SU2 binary restart                 |restart_flow_databladeVALIDATION_Blade_9.dat|
|                                   |                     (12350.8 MB/s)|
|Paraview                           |volume_flow_databladeVALIDATION_Blade_9.vtu|
|                                   |                     (924.571 MB/s)|
|Paraview surface                   |surface_flowdatabladeVALIDATION_Blade_9.vtu|
|                                   |                     (30.9581 MB/s)|
|SU2 ASCII restart                  |restart_flow_databladeVALIDATION_Blade_9.csv|
|                                   |                     (20.9445 MB/s)|
|CSV file                           |surface_flowdatabladeVALIDATION_Blade_9.csv|
|                                   |                     (20.1588 MB/s)|
+-----------------------------------------------------------------------+
+--------------------------------------+
|  Inner_Iter|   Time(sec)|    rms[Rho]|
+--------------------------------------+
|         960|  1.5116e-01|   -4.270631|
|         970|  1.5050e-01|   -4.244046|
|         980|  1.4986e-01|   -4.280354|
|         990|  1.4912e-01|   -4.338668|
|        1000|  1.4843e-01|   -4.337893|
+-----------------------------------------------------------------------+
|        File Writing Summary       |              Filename             |
+-----------------------------------------------------------------------+
|SU2 binary restart                 |restart_flow_databladeVALIDATION_Blade_9.dat|
|                                   |                     (11876.3 MB/s)|
|Paraview                           |volume_flow_databladeVALIDATION_Blade_9.vtu|
|                                   |                     (966.583 MB/s)|
|Paraview surface                   |surface_flowdatabladeVALIDATION_Blade_9.vtu|
|                                   |                       (101.6 MB/s)|
|SU2 ASCII restart                  |restart_flow_databladeVALIDATION_Blade_9.csv|
|                                   |                     (21.3562 MB/s)|
|CSV file                           |surface_flowdatabladeVALIDATION_Blade_9.csv|
|                                   |                     (18.3694 MB/s)|
+-----------------------------------------------------------------------+
+--------------------------------------+
|  Inner_Iter|   Time(sec)|    rms[Rho]|
+--------------------------------------+
|        1010|  1.5026e-01|   -4.318935|
|        1020|  1.4963e-01|   -4.327049|
|        1030|  1.4891e-01|   -4.349358|
|        1040|  1.4827e-01|   -4.344606|
|        1050|  1.4776e-01|   -4.318175|
+-----------------------------------------------------------------------+
|        File Writing Summary       |              Filename             |
+-----------------------------------------------------------------------+
|SU2 binary restart                 |restart_flow_databladeVALIDATION_Blade_9.dat|
|                                   |                       (12743 MB/s)|
|Paraview                           |volume_flow_databladeVALIDATION_Blade_9.vtu|
|                                   |                     (1024.79 MB/s)|
|Paraview surface                   |surface_flowdatabladeVALIDATION_Blade_9.vtu|
|                                   |                     (100.273 MB/s)|
|SU2 ASCII restart                  |restart_flow_databladeVALIDATION_Blade_9.csv|
|                                   |                     (20.9212 MB/s)|
|CSV file                           |surface_flowdatabladeVALIDATION_Blade_9.csv|
|                                   |                     (21.2773 MB/s)|
+-----------------------------------------------------------------------+
+--------------------------------------+
|  Inner_Iter|   Time(sec)|    rms[Rho]|
+--------------------------------------+
|        1060|  1.4966e-01|   -4.342165|
|        1070|  1.4894e-01|   -4.407935|
|        1080|  1.4830e-01|   -4.399464|
|        1090|  1.4774e-01|   -4.352459|
|        1100|  1.4719e-01|   -4.392437|
+-----------------------------------------------------------------------+
|        File Writing Summary       |              Filename             |
+-----------------------------------------------------------------------+
|SU2 binary restart                 |restart_flow_databladeVALIDATION_Blade_9.dat|
|                                   |                     (12006.5 MB/s)|
|Paraview                           |volume_flow_databladeVALIDATION_Blade_9.vtu|
|                                   |                     (880.783 MB/s)|
|Paraview surface                   |surface_flowdatabladeVALIDATION_Blade_9.vtu|
|                                   |                     (56.8572 MB/s)|
|SU2 ASCII restart                  |restart_flow_databladeVALIDATION_Blade_9.csv|
|                                   |                     (20.8973 MB/s)|
|CSV file                           |surface_flowdatabladeVALIDATION_Blade_9.csv|
|                                   |                     (19.2248 MB/s)|
+-----------------------------------------------------------------------+
+--------------------------------------+
|  Inner_Iter|   Time(sec)|    rms[Rho]|
+--------------------------------------+
|        1110|  1.4882e-01|   -4.430535|
|        1120|  1.4822e-01|   -4.434532|
|        1130|  1.4773e-01|   -4.420756|
|        1140|  1.4714e-01|   -4.476528|
|        1150|  1.4657e-01|   -4.470487|
+-----------------------------------------------------------------------+
|        File Writing Summary       |              Filename             |
+-----------------------------------------------------------------------+
|SU2 binary restart                 |restart_flow_databladeVALIDATION_Blade_9.dat|
|                                   |                     (12019.3 MB/s)|
|Paraview                           |volume_flow_databladeVALIDATION_Blade_9.vtu|
|                                   |                     (918.893 MB/s)|
|Paraview surface                   |surface_flowdatabladeVALIDATION_Blade_9.vtu|
|                                   |                     (98.9396 MB/s)|
|SU2 ASCII restart                  |restart_flow_databladeVALIDATION_Blade_9.csv|
|                                   |                     (21.2566 MB/s)|
|CSV file                           |surface_flowdatabladeVALIDATION_Blade_9.csv|
|                                   |                     (21.5325 MB/s)|
+-----------------------------------------------------------------------+
+--------------------------------------+
|  Inner_Iter|   Time(sec)|    rms[Rho]|
+--------------------------------------+
|        1160|  1.4820e-01|   -4.453882|
|        1170|  1.4759e-01|   -4.497005|
|        1180|  1.4707e-01|   -4.488444|
|        1190|  1.4662e-01|   -4.475067|
|        1200|  1.4608e-01|   -4.524805|
+-----------------------------------------------------------------------+
|        File Writing Summary       |              Filename             |
+-----------------------------------------------------------------------+
|SU2 binary restart                 |restart_flow_databladeVALIDATION_Blade_9.dat|
|                                   |                     (11443.1 MB/s)|
|Paraview                           |volume_flow_databladeVALIDATION_Blade_9.vtu|
|                                   |                     (946.349 MB/s)|
|Paraview surface                   |surface_flowdatabladeVALIDATION_Blade_9.vtu|
|                                   |                     (124.367 MB/s)|
|SU2 ASCII restart                  |restart_flow_databladeVALIDATION_Blade_9.csv|
|                                   |                     (21.3937 MB/s)|
|CSV file                           |surface_flowdatabladeVALIDATION_Blade_9.csv|
|                                   |                     (20.0069 MB/s)|
+-----------------------------------------------------------------------+
+--------------------------------------+
|  Inner_Iter|   Time(sec)|    rms[Rho]|
+--------------------------------------+
|        1210|  1.4753e-01|   -4.529506|
|        1220|  1.4699e-01|   -4.529422|
|        1230|  1.4657e-01|   -4.525981|
|        1240|  1.4606e-01|   -4.574679|
|        1250|  1.4564e-01|   -4.576803|
+-----------------------------------------------------------------------+
|        File Writing Summary       |              Filename             |
+-----------------------------------------------------------------------+
|SU2 binary restart                 |restart_flow_databladeVALIDATION_Blade_9.dat|
|                                   |                     (8868.43 MB/s)|
|Paraview                           |volume_flow_databladeVALIDATION_Blade_9.vtu|
|                                   |                     (727.199 MB/s)|
|Paraview surface                   |surface_flowdatabladeVALIDATION_Blade_9.vtu|
|                                   |                     (53.5818 MB/s)|
|SU2 ASCII restart                  |restart_flow_databladeVALIDATION_Blade_9.csv|
|                                   |                     (19.9351 MB/s)|
|CSV file                           |surface_flowdatabladeVALIDATION_Blade_9.csv|
|                                   |                     (21.2657 MB/s)|
+-----------------------------------------------------------------------+
+--------------------------------------+
|  Inner_Iter|   Time(sec)|    rms[Rho]|
+--------------------------------------+
|        1260|  1.4723e-01|   -4.578045|
|        1270|  1.4675e-01|   -4.597295|
|        1280|  1.4619e-01|   -4.620530|
|        1290|  1.4572e-01|   -4.586148|
|        1300|  1.4530e-01|   -4.560004|
+-----------------------------------------------------------------------+
|        File Writing Summary       |              Filename             |
+-----------------------------------------------------------------------+
|SU2 binary restart                 |restart_flow_databladeVALIDATION_Blade_9.dat|
|                                   |                       (12258 MB/s)|
|Paraview                           |volume_flow_databladeVALIDATION_Blade_9.vtu|
|                                   |                     (796.486 MB/s)|
|Paraview surface                   |surface_flowdatabladeVALIDATION_Blade_9.vtu|
|                                   |                     (65.8058 MB/s)|
|SU2 ASCII restart                  |restart_flow_databladeVALIDATION_Blade_9.csv|
|                                   |                     (20.8945 MB/s)|
|CSV file                           |surface_flowdatabladeVALIDATION_Blade_9.csv|
|                                   |                     (17.2381 MB/s)|
+-----------------------------------------------------------------------+
+--------------------------------------+
|  Inner_Iter|   Time(sec)|    rms[Rho]|
+--------------------------------------+
|        1310|  1.4671e-01|   -4.614507|
|        1320|  1.4620e-01|   -4.627665|
|        1330|  1.4589e-01|   -4.604781|
|        1340|  1.4558e-01|   -4.641613|
|        1350|  1.4520e-01|   -4.659630|
+-----------------------------------------------------------------------+
|        File Writing Summary       |              Filename             |
+-----------------------------------------------------------------------+
|SU2 binary restart                 |restart_flow_databladeVALIDATION_Blade_9.dat|
|                                   |                     (12455.9 MB/s)|
|Paraview                           |volume_flow_databladeVALIDATION_Blade_9.vtu|
|                                   |                     (832.459 MB/s)|
|Paraview surface                   |surface_flowdatabladeVALIDATION_Blade_9.vtu|
|                                   |                     (80.8417 MB/s)|
|SU2 ASCII restart                  |restart_flow_databladeVALIDATION_Blade_9.csv|
|                                   |                     (20.8475 MB/s)|
|CSV file                           |surface_flowdatabladeVALIDATION_Blade_9.csv|
|                                   |                     (20.5822 MB/s)|
+-----------------------------------------------------------------------+
+--------------------------------------+
|  Inner_Iter|   Time(sec)|    rms[Rho]|
+--------------------------------------+
|        1360|  1.4666e-01|   -4.664974|
|        1370|  1.4619e-01|   -4.699782|
|        1380|  1.4571e-01|   -4.703305|
|        1390|  1.4537e-01|   -4.675172|
|        1400|  1.4493e-01|   -4.760116|
+-----------------------------------------------------------------------+
|        File Writing Summary       |              Filename             |
+-----------------------------------------------------------------------+
|SU2 binary restart                 |restart_flow_databladeVALIDATION_Blade_9.dat|
|                                   |                     (11709.1 MB/s)|
|Paraview                           |volume_flow_databladeVALIDATION_Blade_9.vtu|
|                                   |                     (843.198 MB/s)|
|Paraview surface                   |surface_flowdatabladeVALIDATION_Blade_9.vtu|
|                                   |                      (81.264 MB/s)|
|SU2 ASCII restart                  |restart_flow_databladeVALIDATION_Blade_9.csv|
|                                   |                     (21.0402 MB/s)|
|CSV file                           |surface_flowdatabladeVALIDATION_Blade_9.csv|
|                                   |                     (19.4498 MB/s)|
+-----------------------------------------------------------------------+
+--------------------------------------+
|  Inner_Iter|   Time(sec)|    rms[Rho]|
+--------------------------------------+
|        1410|  1.4638e-01|   -4.731442|
|        1420|  1.4595e-01|   -4.786442|
|        1430|  1.4552e-01|   -4.766370|
|        1440|  1.4518e-01|   -4.698788|
|        1450|  1.4473e-01|   -4.759566|
+-----------------------------------------------------------------------+
|        File Writing Summary       |              Filename             |
+-----------------------------------------------------------------------+
|SU2 binary restart                 |restart_flow_databladeVALIDATION_Blade_9.dat|
|                                   |                     (11646.5 MB/s)|
|Paraview                           |volume_flow_databladeVALIDATION_Blade_9.vtu|
|                                   |                     (954.112 MB/s)|
|Paraview surface                   |surface_flowdatabladeVALIDATION_Blade_9.vtu|
|                                   |                     (69.0731 MB/s)|
|SU2 ASCII restart                  |restart_flow_databladeVALIDATION_Blade_9.csv|
|                                   |                     (21.0832 MB/s)|
|CSV file                           |surface_flowdatabladeVALIDATION_Blade_9.csv|
|                                   |                     (20.8673 MB/s)|
+-----------------------------------------------------------------------+
+--------------------------------------+
|  Inner_Iter|   Time(sec)|    rms[Rho]|
+--------------------------------------+
|        1460|  1.4600e-01|   -4.741600|
|        1470|  1.4562e-01|   -4.748116|
|        1480|  1.4516e-01|   -4.828852|
|        1490|  1.4472e-01|   -4.841632|
|        1500|  1.4435e-01|   -4.808124|
+-----------------------------------------------------------------------+
|        File Writing Summary       |              Filename             |
+-----------------------------------------------------------------------+
|SU2 binary restart                 |restart_flow_databladeVALIDATION_Blade_9.dat|
|                                   |                     (12748.7 MB/s)|
|Paraview                           |volume_flow_databladeVALIDATION_Blade_9.vtu|
|                                   |                     (907.246 MB/s)|
|Paraview surface                   |surface_flowdatabladeVALIDATION_Blade_9.vtu|
|                                   |                     (87.9587 MB/s)|
|SU2 ASCII restart                  |restart_flow_databladeVALIDATION_Blade_9.csv|
|                                   |                     (21.4623 MB/s)|
|CSV file                           |surface_flowdatabladeVALIDATION_Blade_9.csv|
|                                   |                     (18.3387 MB/s)|
+-----------------------------------------------------------------------+
+--------------------------------------+
|  Inner_Iter|   Time(sec)|    rms[Rho]|
+--------------------------------------+
|        1510|  1.4558e-01|   -4.804631|
|        1520|  1.4514e-01|   -4.825036|
|        1530|  1.4473e-01|   -4.802076|
|        1540|  1.4438e-01|   -4.764139|
|        1550|  1.4397e-01|   -4.849124|
+-----------------------------------------------------------------------+
|        File Writing Summary       |              Filename             |
+-----------------------------------------------------------------------+
|SU2 binary restart                 |restart_flow_databladeVALIDATION_Blade_9.dat|
|                                   |                     (12211.2 MB/s)|
|Paraview                           |volume_flow_databladeVALIDATION_Blade_9.vtu|
|                                   |                     (934.481 MB/s)|
|Paraview surface                   |surface_flowdatabladeVALIDATION_Blade_9.vtu|
|                                   |                       (98.23 MB/s)|
|SU2 ASCII restart                  |restart_flow_databladeVALIDATION_Blade_9.csv|
|                                   |                      (21.218 MB/s)|
|CSV file                           |surface_flowdatabladeVALIDATION_Blade_9.csv|
|                                   |                      (20.669 MB/s)|
+-----------------------------------------------------------------------+
+--------------------------------------+
|  Inner_Iter|   Time(sec)|    rms[Rho]|
+--------------------------------------+
|        1560|  1.4524e-01|   -4.851753|
|        1570|  1.4484e-01|   -4.922119|
|        1580|  1.4442e-01|   -4.906217|
|        1590|  1.4406e-01|   -4.832677|
|        1600|  1.4372e-01|   -4.829284|
+-----------------------------------------------------------------------+
|        File Writing Summary       |              Filename             |
+-----------------------------------------------------------------------+
|SU2 binary restart                 |restart_flow_databladeVALIDATION_Blade_9.dat|
|                                   |                     (11138.9 MB/s)|
|Paraview                           |volume_flow_databladeVALIDATION_Blade_9.vtu|
|                                   |                      (889.43 MB/s)|
|Paraview surface                   |surface_flowdatabladeVALIDATION_Blade_9.vtu|
|                                   |                     (74.6951 MB/s)|
|SU2 ASCII restart                  |restart_flow_databladeVALIDATION_Blade_9.csv|
|                                   |                     (20.8571 MB/s)|
|CSV file                           |surface_flowdatabladeVALIDATION_Blade_9.csv|
|                                   |                     (19.6651 MB/s)|
+-----------------------------------------------------------------------+
+--------------------------------------+
|  Inner_Iter|   Time(sec)|    rms[Rho]|
+--------------------------------------+
|        1610|  1.4500e-01|   -4.841973|
|        1620|  1.4466e-01|   -4.920483|
|        1630|  1.4435e-01|   -4.942687|
|        1640|  1.4393e-01|   -4.980926|
|        1650|  1.4364e-01|   -4.908160|
+-----------------------------------------------------------------------+
|        File Writing Summary       |              Filename             |
+-----------------------------------------------------------------------+
|SU2 binary restart                 |restart_flow_databladeVALIDATION_Blade_9.dat|
|                                   |                     (11249.7 MB/s)|
|Paraview                           |volume_flow_databladeVALIDATION_Blade_9.vtu|
|                                   |                     (909.181 MB/s)|
|Paraview surface                   |surface_flowdatabladeVALIDATION_Blade_9.vtu|
|                                   |                     (96.0732 MB/s)|
|SU2 ASCII restart                  |restart_flow_databladeVALIDATION_Blade_9.csv|
|                                   |                      (20.974 MB/s)|
|CSV file                           |surface_flowdatabladeVALIDATION_Blade_9.csv|
|                                   |                     (21.3944 MB/s)|
+-----------------------------------------------------------------------+
+--------------------------------------+
|  Inner_Iter|   Time(sec)|    rms[Rho]|
+--------------------------------------+
|        1660|  1.4479e-01|   -4.939330|
|        1670|  1.4440e-01|   -4.959758|
|        1680|  1.4406e-01|   -4.941282|
|        1690|  1.4377e-01|   -4.934650|
|        1700|  1.4359e-01|   -4.976276|
+-----------------------------------------------------------------------+
|        File Writing Summary       |              Filename             |
+-----------------------------------------------------------------------+
|SU2 binary restart                 |restart_flow_databladeVALIDATION_Blade_9.dat|
|                                   |                     (11485.7 MB/s)|
|Paraview                           |volume_flow_databladeVALIDATION_Blade_9.vtu|
|                                   |                     (896.909 MB/s)|
|Paraview surface                   |surface_flowdatabladeVALIDATION_Blade_9.vtu|
|                                   |                      (79.315 MB/s)|
|SU2 ASCII restart                  |restart_flow_databladeVALIDATION_Blade_9.csv|
|                                   |                     (20.5557 MB/s)|
|CSV file                           |surface_flowdatabladeVALIDATION_Blade_9.csv|
|                                   |                       (20.77 MB/s)|
+-----------------------------------------------------------------------+
+--------------------------------------+
|  Inner_Iter|   Time(sec)|    rms[Rho]|
+--------------------------------------+
|        1710|  1.4483e-01|   -4.963944|
|        1720|  1.4449e-01|   -5.009723|
|        1730|  1.4416e-01|   -4.981939|
|        1740|  1.4386e-01|   -5.004150|
|        1750|  1.4348e-01|   -5.051419|
+-----------------------------------------------------------------------+
|        File Writing Summary       |              Filename             |
+-----------------------------------------------------------------------+
|SU2 binary restart                 |restart_flow_databladeVALIDATION_Blade_9.dat|
|                                   |                     (7057.72 MB/s)|
|Paraview                           |volume_flow_databladeVALIDATION_Blade_9.vtu|
|                                   |                     (977.576 MB/s)|
|Paraview surface                   |surface_flowdatabladeVALIDATION_Blade_9.vtu|
|                                   |                     (90.9793 MB/s)|
|SU2 ASCII restart                  |restart_flow_databladeVALIDATION_Blade_9.csv|
|                                   |                     (20.8687 MB/s)|
|CSV file                           |surface_flowdatabladeVALIDATION_Blade_9.csv|
|                                   |                     (18.3131 MB/s)|
+-----------------------------------------------------------------------+
+--------------------------------------+
|  Inner_Iter|   Time(sec)|    rms[Rho]|
+--------------------------------------+
|        1760|  1.4474e-01|   -5.054070|
|        1770|  1.4445e-01|   -5.033409|
|        1780|  1.4413e-01|   -5.076610|
|        1790|  1.4377e-01|   -5.087314|
|        1800|  1.4342e-01|   -5.063486|
+-----------------------------------------------------------------------+
|        File Writing Summary       |              Filename             |
+-----------------------------------------------------------------------+
|SU2 binary restart                 |restart_flow_databladeVALIDATION_Blade_9.dat|
|                                   |                     (10006.7 MB/s)|
|Paraview                           |volume_flow_databladeVALIDATION_Blade_9.vtu|
|                                   |                     (905.453 MB/s)|
|Paraview surface                   |surface_flowdatabladeVALIDATION_Blade_9.vtu|
|                                   |                      (57.683 MB/s)|
|SU2 ASCII restart                  |restart_flow_databladeVALIDATION_Blade_9.csv|
|                                   |                     (20.8283 MB/s)|
|CSV file                           |surface_flowdatabladeVALIDATION_Blade_9.csv|
|                                   |                     (20.5227 MB/s)|
+-----------------------------------------------------------------------+
+--------------------------------------+
|  Inner_Iter|   Time(sec)|    rms[Rho]|
+--------------------------------------+
|        1810|  1.4450e-01|   -5.015507|
|        1820|  1.4414e-01|   -5.077234|
|        1830|  1.4381e-01|   -5.073018|
|        1840|  1.4355e-01|   -5.061939|
|        1850|  1.4330e-01|   -5.098760|
+-----------------------------------------------------------------------+
|        File Writing Summary       |              Filename             |
+-----------------------------------------------------------------------+
|SU2 binary restart                 |restart_flow_databladeVALIDATION_Blade_9.dat|
|                                   |                     (3750.23 MB/s)|
|Paraview                           |volume_flow_databladeVALIDATION_Blade_9.vtu|
|                                   |                     (845.541 MB/s)|
|Paraview surface                   |surface_flowdatabladeVALIDATION_Blade_9.vtu|
|                                   |                     (85.5309 MB/s)|
|SU2 ASCII restart                  |restart_flow_databladeVALIDATION_Blade_9.csv|
|                                   |                     (20.4604 MB/s)|
|CSV file                           |surface_flowdatabladeVALIDATION_Blade_9.csv|
|                                   |                     (19.2822 MB/s)|
+-----------------------------------------------------------------------+
+--------------------------------------+
|  Inner_Iter|   Time(sec)|    rms[Rho]|
+--------------------------------------+
|        1860|  1.4433e-01|   -5.139508|
|        1870|  1.4400e-01|   -5.132445|
|        1880|  1.4370e-01|   -5.086973|
|        1890|  1.4341e-01|   -5.112853|
|        1900|  1.4314e-01|   -5.114890|
+-----------------------------------------------------------------------+
|        File Writing Summary       |              Filename             |
+-----------------------------------------------------------------------+
|SU2 binary restart                 |restart_flow_databladeVALIDATION_Blade_9.dat|
|                                   |                     (10402.3 MB/s)|
|Paraview                           |volume_flow_databladeVALIDATION_Blade_9.vtu|
|                                   |                     (979.244 MB/s)|
|Paraview surface                   |surface_flowdatabladeVALIDATION_Blade_9.vtu|
|                                   |                     (68.2596 MB/s)|
|SU2 ASCII restart                  |restart_flow_databladeVALIDATION_Blade_9.csv|
|                                   |                     (20.7371 MB/s)|
|CSV file                           |surface_flowdatabladeVALIDATION_Blade_9.csv|
|                                   |                     (19.4586 MB/s)|
+-----------------------------------------------------------------------+
+--------------------------------------+
|  Inner_Iter|   Time(sec)|    rms[Rho]|
+--------------------------------------+
|        1910|  1.4413e-01|   -5.093612|
|        1920|  1.4385e-01|   -5.068335|
|        1930|  1.4352e-01|   -5.146367|
|        1940|  1.4321e-01|   -5.161707|
|        1950|  1.4293e-01|   -5.152156|
+-----------------------------------------------------------------------+
|        File Writing Summary       |              Filename             |
+-----------------------------------------------------------------------+
|SU2 binary restart                 |restart_flow_databladeVALIDATION_Blade_9.dat|
|                                   |                     (13029.6 MB/s)|
|Paraview                           |volume_flow_databladeVALIDATION_Blade_9.vtu|
|                                   |                     (993.669 MB/s)|
|Paraview surface                   |surface_flowdatabladeVALIDATION_Blade_9.vtu|
|                                   |                     (85.8691 MB/s)|
|SU2 ASCII restart                  |restart_flow_databladeVALIDATION_Blade_9.csv|
|                                   |                     (20.8991 MB/s)|
|CSV file                           |surface_flowdatabladeVALIDATION_Blade_9.csv|
|                                   |                     (19.5064 MB/s)|
+-----------------------------------------------------------------------+
+--------------------------------------+
|  Inner_Iter|   Time(sec)|    rms[Rho]|
+--------------------------------------+
|        1960|  1.4395e-01|   -5.168017|
|        1970|  1.4360e-01|   -5.184616|
|        1980|  1.4340e-01|   -5.112698|
|        1990|  1.4319e-01|   -5.142168|
|        2000|  1.4298e-01|   -5.173618|
+-----------------------------------------------------------------------+
|        File Writing Summary       |              Filename             |
+-----------------------------------------------------------------------+
|SU2 binary restart                 |restart_flow_databladeVALIDATION_Blade_9.dat|
|                                   |                     (12016.7 MB/s)|
|Paraview                           |volume_flow_databladeVALIDATION_Blade_9.vtu|
|                                   |                     (864.188 MB/s)|
|Paraview surface                   |surface_flowdatabladeVALIDATION_Blade_9.vtu|
|                                   |                     (54.2315 MB/s)|
|SU2 ASCII restart                  |restart_flow_databladeVALIDATION_Blade_9.csv|
|                                   |                     (19.8362 MB/s)|
|CSV file                           |surface_flowdatabladeVALIDATION_Blade_9.csv|
|                                   |                      (19.803 MB/s)|
+-----------------------------------------------------------------------+
+--------------------------------------+
|  Inner_Iter|   Time(sec)|    rms[Rho]|
+--------------------------------------+
|        2010|  1.4408e-01|   -5.178377|
|        2020|  1.4388e-01|   -5.181180|
|        2030|  1.4367e-01|   -5.204875|
|        2040|  1.4339e-01|   -5.277001|
|        2050|  1.4314e-01|   -5.263518|
+-----------------------------------------------------------------------+
|        File Writing Summary       |              Filename             |
+-----------------------------------------------------------------------+
|SU2 binary restart                 |restart_flow_databladeVALIDATION_Blade_9.dat|
|                                   |                       (11194 MB/s)|
|Paraview                           |volume_flow_databladeVALIDATION_Blade_9.vtu|
|                                   |                     (865.013 MB/s)|
|Paraview surface                   |surface_flowdatabladeVALIDATION_Blade_9.vtu|
|                                   |                     (67.1493 MB/s)|
|SU2 ASCII restart                  |restart_flow_databladeVALIDATION_Blade_9.csv|
|                                   |                     (20.3767 MB/s)|
|CSV file                           |surface_flowdatabladeVALIDATION_Blade_9.csv|
|                                   |                     (19.1144 MB/s)|
+-----------------------------------------------------------------------+
+--------------------------------------+
|  Inner_Iter|   Time(sec)|    rms[Rho]|
+--------------------------------------+
|        2060|  1.4411e-01|   -5.287515|
|        2070|  1.4381e-01|   -5.320406|
|        2080|  1.4352e-01|   -5.305433|
|        2090|  1.4326e-01|   -5.257400|
|        2100|  1.4299e-01|   -5.295715|
+-----------------------------------------------------------------------+
|        File Writing Summary       |              Filename             |
+-----------------------------------------------------------------------+
|SU2 binary restart                 |restart_flow_databladeVALIDATION_Blade_9.dat|
|                                   |                     (6824.17 MB/s)|
|Paraview                           |volume_flow_databladeVALIDATION_Blade_9.vtu|
|                                   |                     (994.547 MB/s)|
|Paraview surface                   |surface_flowdatabladeVALIDATION_Blade_9.vtu|
|                                   |                     (84.3577 MB/s)|
|SU2 ASCII restart                  |restart_flow_databladeVALIDATION_Blade_9.csv|
|                                   |                     (20.7962 MB/s)|
|CSV file                           |surface_flowdatabladeVALIDATION_Blade_9.csv|
|                                   |                     (18.7254 MB/s)|
+-----------------------------------------------------------------------+
+--------------------------------------+
|  Inner_Iter|   Time(sec)|    rms[Rho]|
+--------------------------------------+
|        2110|  1.4394e-01|   -5.314158|
|        2120|  1.4372e-01|   -5.309356|
|        2130|  1.4356e-01|   -5.316543|
|        2140|  1.4324e-01|   -5.371386|
|        2150|  1.4305e-01|   -5.305279|
+-----------------------------------------------------------------------+
|        File Writing Summary       |              Filename             |
+-----------------------------------------------------------------------+
|SU2 binary restart                 |restart_flow_databladeVALIDATION_Blade_9.dat|
|                                   |                     (11345.9 MB/s)|
|Paraview                           |volume_flow_databladeVALIDATION_Blade_9.vtu|
|                                   |                     (973.203 MB/s)|
|Paraview surface                   |surface_flowdatabladeVALIDATION_Blade_9.vtu|
|                                   |                     (100.023 MB/s)|
|SU2 ASCII restart                  |restart_flow_databladeVALIDATION_Blade_9.csv|
|                                   |                     (20.5778 MB/s)|
|CSV file                           |surface_flowdatabladeVALIDATION_Blade_9.csv|
|                                   |                     (20.7775 MB/s)|
+-----------------------------------------------------------------------+
+--------------------------------------+
|  Inner_Iter|   Time(sec)|    rms[Rho]|
+--------------------------------------+
|        2160|  1.4409e-01|   -5.291023|
|        2170|  1.4381e-01|   -5.362172|
|        2180|  1.4354e-01|   -5.357534|
|        2190|  1.4332e-01|   -5.372427|
|        2200|  1.4304e-01|   -5.432365|
+-----------------------------------------------------------------------+
|        File Writing Summary       |              Filename             |
+-----------------------------------------------------------------------+
|SU2 binary restart                 |restart_flow_databladeVALIDATION_Blade_9.dat|
|                                   |                     (10731.8 MB/s)|
|Paraview                           |volume_flow_databladeVALIDATION_Blade_9.vtu|
|                                   |                     (982.122 MB/s)|
|Paraview surface                   |surface_flowdatabladeVALIDATION_Blade_9.vtu|
|                                   |                     (90.1189 MB/s)|
|SU2 ASCII restart                  |restart_flow_databladeVALIDATION_Blade_9.csv|
|                                   |                     (20.3628 MB/s)|
|CSV file                           |surface_flowdatabladeVALIDATION_Blade_9.csv|
|                                   |                     (20.4505 MB/s)|
+-----------------------------------------------------------------------+
+--------------------------------------+
|  Inner_Iter|   Time(sec)|    rms[Rho]|
+--------------------------------------+
|        2210|  1.4389e-01|   -5.433267|
|        2220|  1.4363e-01|   -5.389895|
|        2230|  1.4340e-01|   -5.392286|
|        2240|  1.4311e-01|   -5.411115|
|        2250|  1.4285e-01|   -5.396459|
+-----------------------------------------------------------------------+
|        File Writing Summary       |              Filename             |
+-----------------------------------------------------------------------+
|SU2 binary restart                 |restart_flow_databladeVALIDATION_Blade_9.dat|
|                                   |                     (11573.4 MB/s)|
|Paraview                           |volume_flow_databladeVALIDATION_Blade_9.vtu|
|                                   |                     (818.619 MB/s)|
|Paraview surface                   |surface_flowdatabladeVALIDATION_Blade_9.vtu|
|                                   |                     (62.3525 MB/s)|
|SU2 ASCII restart                  |restart_flow_databladeVALIDATION_Blade_9.csv|
|                                   |                     (20.8444 MB/s)|
|CSV file                           |surface_flowdatabladeVALIDATION_Blade_9.csv|
|                                   |                      (19.814 MB/s)|
+-----------------------------------------------------------------------+
+--------------------------------------+
|  Inner_Iter|   Time(sec)|    rms[Rho]|
+--------------------------------------+
|        2260|  1.4372e-01|   -5.399469|
|        2270|  1.4342e-01|   -5.459756|
|        2280|  1.4323e-01|   -5.437345|
|        2290|  1.4306e-01|   -5.413099|
|        2300|  1.4286e-01|   -5.404352|
+-----------------------------------------------------------------------+
|        File Writing Summary       |              Filename             |
+-----------------------------------------------------------------------+
|SU2 binary restart                 |restart_flow_databladeVALIDATION_Blade_9.dat|
|                                   |                     (8832.43 MB/s)|
|Paraview                           |volume_flow_databladeVALIDATION_Blade_9.vtu|
|                                   |                     (891.639 MB/s)|
|Paraview surface                   |surface_flowdatabladeVALIDATION_Blade_9.vtu|
|                                   |                     (99.0005 MB/s)|
|SU2 ASCII restart                  |restart_flow_databladeVALIDATION_Blade_9.csv|
|                                   |                     (20.9282 MB/s)|
|CSV file                           |surface_flowdatabladeVALIDATION_Blade_9.csv|
|                                   |                     (18.2201 MB/s)|
+-----------------------------------------------------------------------+
+--------------------------------------+
|  Inner_Iter|   Time(sec)|    rms[Rho]|
+--------------------------------------+
|        2310|  1.4369e-01|   -5.477236|
|        2320|  1.4344e-01|   -5.505047|
|        2330|  1.4320e-01|   -5.500794|
|        2340|  1.4297e-01|   -5.511831|
|        2350|  1.4271e-01|   -5.542973|
+-----------------------------------------------------------------------+
|        File Writing Summary       |              Filename             |
+-----------------------------------------------------------------------+
|SU2 binary restart                 |restart_flow_databladeVALIDATION_Blade_9.dat|
|                                   |                     (12684.9 MB/s)|
|Paraview                           |volume_flow_databladeVALIDATION_Blade_9.vtu|
|                                   |                     (1007.61 MB/s)|
|Paraview surface                   |surface_flowdatabladeVALIDATION_Blade_9.vtu|
|                                   |                     (57.3223 MB/s)|
[...]
|        File Writing Summary       |              Filename             |
+-----------------------------------------------------------------------+
|SU2 binary restart                 |restart_flow_databladeVALIDATION_Blade_9.dat|
|                                   |                     (9987.29 MB/s)|
|Paraview                           |volume_flow_databladeVALIDATION_Blade_9.vtu|
|                                   |                      (820.74 MB/s)|
|Paraview surface                   |surface_flowdatabladeVALIDATION_Blade_9.vtu|
|                                   |                     (50.4649 MB/s)|
|SU2 ASCII restart                  |restart_flow_databladeVALIDATION_Blade_9.csv|
|                                   |                     (20.5473 MB/s)|
|CSV file                           |surface_flowdatabladeVALIDATION_Blade_9.csv|
|                                   |                     (20.3459 MB/s)|
+-----------------------------------------------------------------------+
+--------------------------------------+
|  Inner_Iter|   Time(sec)|    rms[Rho]|
+--------------------------------------+
|        3410|  1.4230e-01|   -6.350281|
|        3420|  1.4211e-01|   -6.349524|
|        3430|  1.4199e-01|   -6.272311|
|        3440|  1.4187e-01|   -6.317352|
|        3450|  1.4176e-01|   -6.357133|
+-----------------------------------------------------------------------+
|        File Writing Summary       |              Filename             |
+-----------------------------------------------------------------------+
|SU2 binary restart                 |restart_flow_databladeVALIDATION_Blade_9.dat|
|                                   |                     (13037.6 MB/s)|
|Paraview                           |volume_flow_databladeVALIDATION_Blade_9.vtu|
|                                   |                     (905.736 MB/s)|
|Paraview surface                   |surface_flowdatabladeVALIDATION_Blade_9.vtu|
|                                   |                      (92.356 MB/s)|
|SU2 ASCII restart                  |restart_flow_databladeVALIDATION_Blade_9.csv|
|                                   |                     (21.1053 MB/s)|
|CSV file                           |surface_flowdatabladeVALIDATION_Blade_9.csv|
|                                   |                     (20.0256 MB/s)|
+-----------------------------------------------------------------------+
+--------------------------------------+
|  Inner_Iter|   Time(sec)|    rms[Rho]|
+--------------------------------------+
|        3460|  1.4236e-01|   -6.348124|
|        3470|  1.4224e-01|   -6.344364|
|        3480|  1.4212e-01|   -6.388414|
|        3490|  1.4201e-01|   -6.427671|
|        3500|  1.4191e-01|   -6.412892|
+-----------------------------------------------------------------------+
|        File Writing Summary       |              Filename             |
+-----------------------------------------------------------------------+
|SU2 binary restart                 |restart_flow_databladeVALIDATION_Blade_9.dat|
|                                   |                     (10141.9 MB/s)|
|Paraview                           |volume_flow_databladeVALIDATION_Blade_9.vtu|
|                                   |                     (824.621 MB/s)|
|Paraview surface                   |surface_flowdatabladeVALIDATION_Blade_9.vtu|
|                                   |                     (70.8222 MB/s)|
|SU2 ASCII restart                  |restart_flow_databladeVALIDATION_Blade_9.csv|
|                                   |                     (21.0645 MB/s)|
|CSV file                           |surface_flowdatabladeVALIDATION_Blade_9.csv|
|                                   |                     (18.6112 MB/s)|
+-----------------------------------------------------------------------+
+--------------------------------------+
|  Inner_Iter|   Time(sec)|    rms[Rho]|
+--------------------------------------+
|        3510|  1.4251e-01|   -6.413236|
|        3520|  1.4239e-01|   -6.461418|
|        3530|  1.4228e-01|   -6.491674|
|        3540|  1.4216e-01|   -6.474417|
|        3550|  1.4205e-01|   -6.487100|
+-----------------------------------------------------------------------+
|        File Writing Summary       |              Filename             |
+-----------------------------------------------------------------------+
|SU2 binary restart                 |restart_flow_databladeVALIDATION_Blade_9.dat|
|                                   |                     (10099.6 MB/s)|
|Paraview                           |volume_flow_databladeVALIDATION_Blade_9.vtu|
|                                   |                     (1010.21 MB/s)|
|Paraview surface                   |surface_flowdatabladeVALIDATION_Blade_9.vtu|
|                                   |                      (93.249 MB/s)|
|SU2 ASCII restart                  |restart_flow_databladeVALIDATION_Blade_9.csv|
|                                   |                     (21.0173 MB/s)|
|CSV file                           |surface_flowdatabladeVALIDATION_Blade_9.csv|
|                                   |                     (20.4977 MB/s)|
+-----------------------------------------------------------------------+
+--------------------------------------+
|  Inner_Iter|   Time(sec)|    rms[Rho]|
+--------------------------------------+
|        3560|  1.4265e-01|   -6.539330|
|        3570|  1.4254e-01|   -6.556449|
|        3580|  1.4244e-01|   -6.541184|
|        3590|  1.4235e-01|   -6.564001|
|        3600|  1.4227e-01|   -6.610876|
+-----------------------------------------------------------------------+
|        File Writing Summary       |              Filename             |
+-----------------------------------------------------------------------+
|SU2 binary restart                 |restart_flow_databladeVALIDATION_Blade_9.dat|
|                                   |                     (12248.3 MB/s)|
|Paraview                           |volume_flow_databladeVALIDATION_Blade_9.vtu|
|                                   |                     (1060.79 MB/s)|
|Paraview surface                   |surface_flowdatabladeVALIDATION_Blade_9.vtu|
|                                   |                     (92.6826 MB/s)|
|SU2 ASCII restart                  |restart_flow_databladeVALIDATION_Blade_9.csv|
|                                   |                     (20.5585 MB/s)|
|CSV file                           |surface_flowdatabladeVALIDATION_Blade_9.csv|
|                                   |                     (19.0326 MB/s)|
+-----------------------------------------------------------------------+
+--------------------------------------+
|  Inner_Iter|   Time(sec)|    rms[Rho]|
+--------------------------------------+
|        3610|  1.4287e-01|   -6.616578|
|        3620|  1.4276e-01|   -6.611035|
|        3630|  1.4264e-01|   -6.643609|
|        3640|  1.4254e-01|   -6.678889|
|        3650|  1.4243e-01|   -6.676281|
+-----------------------------------------------------------------------+
|        File Writing Summary       |              Filename             |
+-----------------------------------------------------------------------+
|SU2 binary restart                 |restart_flow_databladeVALIDATION_Blade_9.dat|
|                                   |                     (11898.8 MB/s)|
|Paraview                           |volume_flow_databladeVALIDATION_Blade_9.vtu|
|                                   |                      (922.13 MB/s)|
|Paraview surface                   |surface_flowdatabladeVALIDATION_Blade_9.vtu|
|                                   |                     (93.5929 MB/s)|
|SU2 ASCII restart                  |restart_flow_databladeVALIDATION_Blade_9.csv|
|                                   |                     (20.6584 MB/s)|
|CSV file                           |surface_flowdatabladeVALIDATION_Blade_9.csv|
|                                   |                      (18.617 MB/s)|
+-----------------------------------------------------------------------+
+--------------------------------------+
|  Inner_Iter|   Time(sec)|    rms[Rho]|
+--------------------------------------+
|        3660|  1.4300e-01|   -6.681066|
|        3670|  1.4290e-01|   -6.715896|
|        3680|  1.4279e-01|   -6.739138|
|        3690|  1.4268e-01|   -6.738497|
|        3700|  1.4257e-01|   -6.755121|
+-----------------------------------------------------------------------+
|        File Writing Summary       |              Filename             |
+-----------------------------------------------------------------------+
|SU2 binary restart                 |restart_flow_databladeVALIDATION_Blade_9.dat|
|                                   |                     (10906.3 MB/s)|
|Paraview                           |volume_flow_databladeVALIDATION_Blade_9.vtu|
|                                   |                      (1012.9 MB/s)|
|Paraview surface                   |surface_flowdatabladeVALIDATION_Blade_9.vtu|
|                                   |                     (83.2192 MB/s)|
|SU2 ASCII restart                  |restart_flow_databladeVALIDATION_Blade_9.csv|
|                                   |                     (20.5429 MB/s)|
|CSV file                           |surface_flowdatabladeVALIDATION_Blade_9.csv|
|                                   |                     (19.4479 MB/s)|
+-----------------------------------------------------------------------+
+--------------------------------------+
|  Inner_Iter|   Time(sec)|    rms[Rho]|
+--------------------------------------+
|        3710|  1.4315e-01|   -6.785710|
|        3720|  1.4298e-01|   -6.832757|
|        3730|  1.4284e-01|   -6.811509|
|        3740|  1.4269e-01|   -6.818518|
|        3750|  1.4252e-01|   -6.834721|
+-----------------------------------------------------------------------+
|        File Writing Summary       |              Filename             |
+-----------------------------------------------------------------------+
|SU2 binary restart                 |restart_flow_databladeVALIDATION_Blade_9.dat|
|                                   |                     (10446.5 MB/s)|
|Paraview                           |volume_flow_databladeVALIDATION_Blade_9.vtu|
|                                   |                     (955.843 MB/s)|
|Paraview surface                   |surface_flowdatabladeVALIDATION_Blade_9.vtu|
|                                   |                     (91.6921 MB/s)|
|SU2 ASCII restart                  |restart_flow_databladeVALIDATION_Blade_9.csv|
|                                   |                      (20.458 MB/s)|
|CSV file                           |surface_flowdatabladeVALIDATION_Blade_9.csv|
|                                   |                     (19.4898 MB/s)|
+-----------------------------------------------------------------------+
+--------------------------------------+
|  Inner_Iter|   Time(sec)|    rms[Rho]|
+--------------------------------------+
|        3760|  1.4307e-01|   -6.828173|
|        3770|  1.4294e-01|   -6.834257|
|        3780|  1.4276e-01|   -6.868494|
|        3790|  1.4259e-01|   -6.873268|
|        3800|  1.4246e-01|   -6.855800|
+-----------------------------------------------------------------------+
|        File Writing Summary       |              Filename             |
+-----------------------------------------------------------------------+
|SU2 binary restart                 |restart_flow_databladeVALIDATION_Blade_9.dat|
|                                   |                     (11760.3 MB/s)|
|Paraview                           |volume_flow_databladeVALIDATION_Blade_9.vtu|
|                                   |                     (722.329 MB/s)|
|Paraview surface                   |surface_flowdatabladeVALIDATION_Blade_9.vtu|
|                                   |                     (74.7832 MB/s)|
|SU2 ASCII restart                  |restart_flow_databladeVALIDATION_Blade_9.csv|
|                                   |                     (20.2633 MB/s)|
|CSV file                           |surface_flowdatabladeVALIDATION_Blade_9.csv|
|                                   |                     (17.5676 MB/s)|
+-----------------------------------------------------------------------+
+--------------------------------------+
|  Inner_Iter|   Time(sec)|    rms[Rho]|
+--------------------------------------+
|        3810|  1.4303e-01|   -6.864014|
|        3820|  1.4286e-01|   -6.877129|
|        3830|  1.4269e-01|   -6.872211|
|        3840|  1.4254e-01|   -6.854247|
|        3850|  1.4240e-01|   -6.888656|
+-----------------------------------------------------------------------+
|        File Writing Summary       |              Filename             |
+-----------------------------------------------------------------------+
|SU2 binary restart                 |restart_flow_databladeVALIDATION_Blade_9.dat|
|                                   |                     (12388.6 MB/s)|
|Paraview                           |volume_flow_databladeVALIDATION_Blade_9.vtu|
|                                   |                     (1045.69 MB/s)|
|Paraview surface                   |surface_flowdatabladeVALIDATION_Blade_9.vtu|
|                                   |                     (98.8179 MB/s)|
|SU2 ASCII restart                  |restart_flow_databladeVALIDATION_Blade_9.csv|
|                                   |                     (20.5292 MB/s)|
|CSV file                           |surface_flowdatabladeVALIDATION_Blade_9.csv|
|                                   |                     (19.1445 MB/s)|
+-----------------------------------------------------------------------+
+--------------------------------------+
|  Inner_Iter|   Time(sec)|    rms[Rho]|
+--------------------------------------+
|        3860|  1.4289e-01|   -6.904444|
|        3870|  1.4274e-01|   -6.896630|
|        3880|  1.4261e-01|   -6.895939|
|        3890|  1.4245e-01|   -6.913759|
|        3900|  1.4235e-01|   -6.870849|
+-----------------------------------------------------------------------+
|        File Writing Summary       |              Filename             |
+-----------------------------------------------------------------------+
|SU2 binary restart                 |restart_flow_databladeVALIDATION_Blade_9.dat|
|                                   |                     (12074.8 MB/s)|
|Paraview                           |volume_flow_databladeVALIDATION_Blade_9.vtu|
|                                   |                     (833.692 MB/s)|
|Paraview surface                   |surface_flowdatabladeVALIDATION_Blade_9.vtu|
|                                   |                     (37.4009 MB/s)|
|SU2 ASCII restart                  |restart_flow_databladeVALIDATION_Blade_9.csv|
|                                   |                     (20.8658 MB/s)|
|CSV file                           |surface_flowdatabladeVALIDATION_Blade_9.csv|
|                                   |                     (19.0793 MB/s)|
+-----------------------------------------------------------------------+
+--------------------------------------+
|  Inner_Iter|   Time(sec)|    rms[Rho]|
+--------------------------------------+
|        3910|  1.4288e-01|   -6.888496|
|        3920|  1.4278e-01|   -6.915973|
|        3930|  1.4267e-01|   -6.925380|
|        3940|  1.4257e-01|   -6.928996|
|        3950|  1.4247e-01|   -6.950683|
+-----------------------------------------------------------------------+
|        File Writing Summary       |              Filename             |
+-----------------------------------------------------------------------+
|SU2 binary restart                 |restart_flow_databladeVALIDATION_Blade_9.dat|
|                                   |                     (11411.6 MB/s)|
|Paraview                           |volume_flow_databladeVALIDATION_Blade_9.vtu|
|                                   |                     (962.212 MB/s)|
|Paraview surface                   |surface_flowdatabladeVALIDATION_Blade_9.vtu|
|                                   |                     (75.2782 MB/s)|
|SU2 ASCII restart                  |restart_flow_databladeVALIDATION_Blade_9.csv|
|                                   |                     (20.7023 MB/s)|
|CSV file                           |surface_flowdatabladeVALIDATION_Blade_9.csv|
|                                   |                     (21.7234 MB/s)|
+-----------------------------------------------------------------------+
+--------------------------------------+
|  Inner_Iter|   Time(sec)|    rms[Rho]|
+--------------------------------------+
|        3960|  1.4298e-01|   -6.971879|
|        3970|  1.4287e-01|   -6.970311|
|        3980|  1.4275e-01|   -6.973843|
|        3990|  1.4264e-01|   -7.001926|

----------------------------- Solver Exit -------------------------------
All convergence criteria satisfied.
+-----------------------------------------------------------------------+
|      Convergence Field     |     Value    |   Criterion  |  Converged |
+-----------------------------------------------------------------------+
|                    rms[Rho]|      -7.00193|          < -7|         Yes|
+-----------------------------------------------------------------------+
-------------------------------------------------------------------------
+-----------------------------------------------------------------------+
|        File Writing Summary       |              Filename             |
+-----------------------------------------------------------------------+
|SU2 binary restart                 |restart_flow_databladeVALIDATION_Blade_9.dat|
|                                   |                     (12966.9 MB/s)|
|Paraview                           |volume_flow_databladeVALIDATION_Blade_9.vtu|
|                                   |                      (1042.6 MB/s)|
|Paraview surface                   |surface_flowdatabladeVALIDATION_Blade_9.vtu|
|                                   |                     (128.524 MB/s)|
|SU2 ASCII restart                  |restart_flow_databladeVALIDATION_Blade_9.csv|
|                                   |                     (21.5097 MB/s)|
|CSV file                           |surface_flowdatabladeVALIDATION_Blade_9.csv|
|                                   |                     (20.4609 MB/s)|
+-----------------------------------------------------------------------+

--------------------------- Finalizing Solver ---------------------------
Deleted CNumerics container.
Deleted CIntegration container.
Deleted CSolver container.
Deleted CIteration container.
Deleted CInterface container.
Deleted CGeometry container.
Deleted CFreeFormDefBox class.
Deleted CSurfaceMovement class.
Deleted CVolumetricMovement class.
Deleted CConfig container.
Deleted nInst container.
Deleted COutput class.
-------------------------------------------------------------------------


-------------------------- Performance Summary --------------------------
Simulation totals:
   Wall-clock time (hrs):    0.158952 |            Core-hrs:     1.90742
                   Cores:          12 |          DOFs/point:           5
             Points/core:     5353.25 |   Ghost points/core:     165.583
 Ghost/Owned Point Ratio:   0.0309314 | 

Preprocessing phase:
       Preproc. Time (s):    0.541298 |   Preproc. Time (%):    0.094595

Compute phase:
        Compute Time (s):     569.278 |    Compute Time (%):     99.4846
         Iteration count:        3991 |         Avg. s/iter:     0.14264
     Core-s/iter/Mpoints:     25.8461 |           Mpoints/s:    0.464286

Output phase:
         Output Time (s):      2.4077 |     Output Time (%):     0.42076
            Output count:           1 |       Avg. s/output:      2.4077
 Restart Aggr. BW (MB/s):      830445 |           MB/s/core:     69203.7
-------------------------------------------------------------------------


------------------------- Exit Success (SU2_CFD) ------------------------

