
-------------------------------------------------------------------------
|    ___ _   _ ___                                                      |
|   / __| | | |_  )   Release 8.0.1 "Harrier"                           |
|   \__ \ |_| |/ /                                                      |
|   |___/\___//___|   Suite (Computational Fluid Dynamics Code)         |
|                                                                       |
-------------------------------------------------------------------------
| SU2 Project Website: https://su2code.github.io                        |
|                                                                       |
| The SU2 Project is maintained by the SU2 Foundation                   |
| (http://su2foundation.org)                                            |
-------------------------------------------------------------------------
| Copyright 2012-2024, SU2 Contributors                                 |
|                                                                       |
| SU2 is free software; you can redistribute it and/or                  |
| modify it under the terms of the GNU Lesser General Public            |
| License as published by the Free Software Foundation; either          |
| version 2.1 of the License, or (at your option) any later version.    |
|                                                                       |
| SU2 is distributed in the hope that it will be useful,                |
| but WITHOUT ANY WARRANTY; without even the implied warranty of        |
| MERCHANTABILITY or FITNESS FOR A PARTICULAR PURPOSE. See the GNU      |
| Lesser General Public License for more details.                       |
|                                                                       |
| You should have received a copy of the GNU Lesser General Public      |
| License along with SU2. If not, see <http://www.gnu.org/licenses/>.   |
-------------------------------------------------------------------------

Parsing config file for zone 0

----------------- Physical Case Definition ( Zone 0 ) -------------------
Compressible RANS equations.
Turbulence model: Spalart-Allmaras-noft2-BCM
Hybrid RANS/LES: No Hybrid RANS/LES
Mach number: 0.667.
Angle of attack (AoA): -4 deg, and angle of sideslip (AoS): 0 deg.
Reynolds number: 600000. Reference length 1.00217.
No restart solution, use the values at infinity (freestream).
Dimensional simulation.
The reference area will be computed using y(2D) or z(3D) projection.
The semi-span will be computed using the max y(3D) value.
The reference length is 1.00217 m.
Reference origin for moment evaluation is (0, 0, 0).
Surface(s) where the force coefficients are evaluated: blade1.

Surface(s) plotted in the output file: blade1.
Surface(s) to be analyzed in detail: inlet, outlet, blade1.
Input mesh file name: cascade2D_databladeVALIDATION_Blade_24.su2

--------------- Space Numerical Integration ( Zone 0 ) ------------------
Jameson-Schmidt-Turkel scheme (2nd order in space) for the flow inviscid terms.
JST viscous coefficients (2nd & 4th): 0.5, 0.02.
The method includes a grid stretching correction (p = 0.3).
Scalar upwind solver for the turbulence model.
First order integration in space.
Average of gradients with correction (viscous flow terms).
Average of gradients with correction (viscous turbulence terms).
Gradient for upwind reconstruction: inverse-distance weighted Least-Squares.
Gradient for viscous and source terms: inverse-distance weighted Least-Squares.

--------------- Time Numerical Integration  ( Zone 0 ) ------------------
Local time stepping (steady state simulation).
Euler implicit method for the flow equations.
FGMRES is used for solving the linear system.
Using a LU-SGS preconditioning.
Convergence criteria of the linear solver: 0.0001.
Max number of linear iterations: 10.
V Multigrid Cycle, with 3 multigrid levels.
Damping factor for the residual restriction: 0.75.
Damping factor for the correction prolongation: 0.75.
CFL adaptation. Factor down: 0.1, factor up: 1.2,
                lower limit: 0.1, upper limit: 100,
                acceptable linear residual: 0.001.
+-------------------------------------------+
|  MG Level| Presmooth|PostSmooth|CorrectSmo|
+-------------------------------------------+
|         0|         1|         0|         1|
|         1|         2|         2|         2|
|         2|         3|         3|         3|
|         3|         3|         0|         0|
+-------------------------------------------+
Courant-Friedrichs-Lewy number:       12
Euler implicit time integration for the turbulence model.

------------------ Convergence Criteria  ( Zone 0 ) ---------------------
Maximum number of solver subiterations: 7000.
Begin convergence monitoring at iteration 500.
Residual minimum value: 1e-7.
Cauchy series min. value: 1e-10.
Number of Cauchy elements: 100.
Begin windowed time average at iteration 0.

-------------------- Output Information ( Zone 0 ) ----------------------
File writing frequency: 
+------------------------------------+
|                     File| Frequency|
+------------------------------------+
|                  RESTART|        50|
|                 PARAVIEW|        50|
|         SURFACE_PARAVIEW|        50|
|                      CSV|        50|
|              SURFACE_CSV|        50|
+------------------------------------+
Writing the convergence history file every 1 inner iterations.
Writing the screen convergence history every 10 inner iterations.
The tabular file format is CSV (.csv).
Convergence history file name: history_databladeVALIDATION_Blade_24.
Forces breakdown file name: forces_breakdown.dat.
Surface file name: surface_flowdatabladeVALIDATION_Blade_24.
Volume file name: volume_flow_databladeVALIDATION_Blade_24.
Restart file name: restart_flow_databladeVALIDATION_Blade_24.dat.

------------- Config File Boundary Information ( Zone 0 ) ---------------
+-----------------------------------------------------------------------+
|                        Marker Type|                        Marker Name|
+-----------------------------------------------------------------------+
|                  Periodic boundary|               symmetricWallsBOTTOM|
|                                   |                  symmetricWallsTOP|
+-----------------------------------------------------------------------+
|                     Inlet boundary|                              inlet|
+-----------------------------------------------------------------------+
|                    Outlet boundary|                             outlet|
+-----------------------------------------------------------------------+
|                     Heat flux wall|                             blade1|
|                                   |                             blade2|
+-----------------------------------------------------------------------+

-------------------- Output Preprocessing ( Zone 0 ) --------------------
  Info: Ignoring the following screen output fields:
  LINSOL_ITER_TRANS, LINSOL_RESIDUAL_TRANS
Screen output fields: INNER_ITER, CUR_TIME, RMS_DENSITY
  Info: Ignoring the following history output groups:
  RMS_TKE, RMS_DISSIPATION
History output group(s): INNER_ITER, WALL_TIME, RMS_DENSITY, RMS_MOMENTUM-X, RMS_ENERGY, LINSOL, CFL_NUMBER, FLOW_COEFF_SURF, AERO_COEFF_SURF
Convergence field(s): RMS_DENSITY
Warning: No (valid) fields chosen for time convergence monitoring. Time convergence monitoring inactive.
Volume output fields: COORDINATES, SOLUTION, PRIMITIVE, RESIDUAL, TIMESTEP, MESH_QUALITY, VORTEX_IDENTIFICATION

------------------- Geometry Preprocessing ( Zone 0 ) -------------------
Two dimensional problem.
67448 grid points before partitioning.
104620 volume elements before partitioning.
5 surface markers.
30 boundary elements in index 0 (Marker = inlet).
283 boundary elements in index 1 (Marker = symmetricWallsBOTTOM).
283 boundary elements in index 2 (Marker = symmetricWallsTOP).
30 boundary elements in index 3 (Marker = outlet).
1186 boundary elements in index 4 (Marker = blade1).
Executing the partitioning functions.
Building the graph adjacency structure.
Calling ParMETIS... graph partitioning complete (1767 edge cuts).
Distributing ParMETIS coloring.
Rebalancing vertices.
Rebalancing volume element connectivity.
Rebalancing markers and surface elements.
69559 vertices including ghost points. 
106378 interior elements including halo cells. 
77585 triangles.
28793 quadrilaterals.
Establishing MPI communication patterns.
Setting point connectivity.
Renumbering points (Reverse Cuthill McKee Ordering).
Recomputing point connectivity.
Setting element connectivity.
Checking the numerical grid orientation.
All volume elements are correctly orientend.
There has been a re-orientation of 915 LINE surface elements.
Identifying edges and vertices.
Setting the control volume structure.
Area of the computational grid: 3.97536.
Searching for the closest normal neighbors to the surfaces.
Storing a mapping from global to local point index.
Compute the surface curvature.
Max K: 124.314. Mean K: 4.13722. Standard deviation K: 13.8332.
Checking for periodicity.
WARNING: Periodicity has been detected. Disabling multigrid. 
Computing mesh quality statistics for the dual control volumes.
+--------------------------------------------------------------+
|           Mesh Quality Metric|        Minimum|        Maximum|
+--------------------------------------------------------------+
|    Orthogonality Angle (deg.)|        55.2254|             90|
|     CV Face Area Aspect Ratio|        1.00009|        284.463|
|           CV Sub-Volume Ratio|              1|        20.4243|
+--------------------------------------------------------------+
Finding max control volume width.
Communicating number of neighbors.
Reference length = 1.01461 m.
Wetted area = 2.84272 m.
Area projection in the x-plane = 0.891086 m, y-plane = 1.01461 m.
Max. coordinate in the x-direction = 1.01451 m, y-direction = 0.761713 m.
Min. coordinate in the x-direction = -0.000105228 m, y-direction = -0.129377 m.
Matching the periodic boundary points for marker pair 1.
 Matched 568 points with a max distance of: 9.49726e-14.
Computing wall distances.

-------------------- Solver Preprocessing ( Zone 0 ) --------------------
Viscous flow: Computing pressure using the ideal gas law
based on the free-stream temperature and a density computed
from the Reynolds number.
Force coefficients computed using free-stream values.

-- Models:
+------------------------------------------------------------------------------+
|          Viscosity Model|        Conductivity Model|              Fluid Model|
+------------------------------------------------------------------------------+
|               SUTHERLAND|          CONSTANT_PRANDTL|                IDEAL_GAS|
+------------------------------------------------------------------------------+
-- Fluid properties:
+------------------------------------------------------------------------------+
|                  Name|    Dim. value|    Ref. value|      Unit|Non-dim. value|
+------------------------------------------------------------------------------+
|        Ref. Viscosity|     1.716e-05|             1|   N.s/m^2|     1.716e-05|
|      Sutherland Temp.|        273.15|             1|         K|        273.15|
|     Sutherland Const.|         110.4|             1|         K|         110.4|
+------------------------------------------------------------------------------+
|        Prandtl (Lam.)|             -|             -|         -|          0.72|
|       Prandtl (Turb.)|             -|             -|         -|           0.9|
+------------------------------------------------------------------------------+
|          Gas Constant|       287.058|             1|  N.m/kg.K|       287.058|
|      Spec. Heat Ratio|             -|             -|         -|           1.4|
+------------------------------------------------------------------------------+
-- Initial and free-stream conditions:
+------------------------------------------------------------------------------+
|                  Name|    Dim. value|    Ref. value|      Unit|Non-dim. value|
+------------------------------------------------------------------------------+
|       Static Pressure|       4109.38|             1|        Pa|       4109.38|
|               Density|     0.0477183|             1|    kg/m^3|     0.0477183|
|           Temperature|           300|             1|         K|           300|
|          Total Energy|        242112|             1|   m^2/s^2|        242112|
|            Velocity-X|       231.034|             1|       m/s|       231.034|
|            Velocity-Y|      -16.1555|             1|       m/s|      -16.1555|
|    Velocity Magnitude|       231.598|             1|       m/s|       231.598|
+------------------------------------------------------------------------------+
|             Viscosity|   1.84592e-05|             1|   N.s/m^2|   1.84592e-05|
|          Conductivity|             -|             1|   W/m^2.K|             -|
|     Turb. Kin. Energy|       98.5594|             1|   m^2/s^2|       98.5594|
|     Spec. Dissipation|   2.54783e+06|             1|       1/s|   2.54783e+06|
+------------------------------------------------------------------------------+
|           Mach Number|             -|             -|         -|         0.667|
|       Reynolds Number|             -|             -|         -|        600000|
+------------------------------------------------------------------------------+
Initialize Jacobian structure (Navier-Stokes). MG level: 0.
Initialize Jacobian structure (SA model).

------------------- Numerics Preprocessing ( Zone 0 ) -------------------

----------------- Integration Preprocessing ( Zone 0 ) ------------------

------------------- Iteration Preprocessing ( Zone 0 ) ------------------
Euler/Navier-Stokes/RANS fluid iteration.

------------------------------ Begin Solver -----------------------------

Simulation Run using the Single-zone Driver
WARNING: SU2 was not compiled for an AVX-capable architecture. Performance could be better,
         see https://su2code.github.io/docs_v7/Build-SU2-Linux-MacOS/#compiler-optimizations
+--------------------------------------+
|  Inner_Iter|    Cur_Time|    rms[Rho]|
+--------------------------------------+
|           0|  0.0000e+00|   -2.590628|
|          10|  0.0000e+00|   -3.207584|
|          20|  0.0000e+00|   -3.087469|
|          30|  0.0000e+00|   -3.043967|
|          40|  0.0000e+00|   -3.038428|
|          50|  0.0000e+00|   -2.807349|
+-----------------------------------------------------------------------+
|        File Writing Summary       |              Filename             |
+-----------------------------------------------------------------------+
|SU2 binary restart                 |restart_flow_databladeVALIDATION_Blade_24.dat|
|                                   |                     (5281.44 MB/s)|
|Paraview                           |volume_flow_databladeVALIDATION_Blade_24.vtu|
|                                   |                     (291.961 MB/s)|
|Paraview surface                   |surface_flowdatabladeVALIDATION_Blade_24.vtu|
|                                   |                     (50.3143 MB/s)|
|SU2 ASCII restart                  |restart_flow_databladeVALIDATION_Blade_24.csv|
|                                   |                     (10.3908 MB/s)|
|CSV file                           |surface_flowdatabladeVALIDATION_Blade_24.csv|
|                                   |                     (9.92024 MB/s)|
+-----------------------------------------------------------------------+
+--------------------------------------+
|  Inner_Iter|    Cur_Time|    rms[Rho]|
+--------------------------------------+
|          60|  0.0000e+00|   -2.974610|
|          70|  0.0000e+00|   -3.065196|
|          80|  0.0000e+00|   -3.115524|
|          90|  0.0000e+00|   -3.165775|
|         100|  0.0000e+00|   -3.100149|
+-----------------------------------------------------------------------+
|        File Writing Summary       |              Filename             |
+-----------------------------------------------------------------------+
|SU2 binary restart                 |restart_flow_databladeVALIDATION_Blade_24.dat|
|                                   |                     (10436.1 MB/s)|
|Paraview                           |volume_flow_databladeVALIDATION_Blade_24.vtu|
|                                   |                     (683.854 MB/s)|
|Paraview surface                   |surface_flowdatabladeVALIDATION_Blade_24.vtu|
|                                   |                     (44.6505 MB/s)|
|SU2 ASCII restart                  |restart_flow_databladeVALIDATION_Blade_24.csv|
|                                   |                     (10.3667 MB/s)|
|CSV file                           |surface_flowdatabladeVALIDATION_Blade_24.csv|
|                                   |                     (9.90659 MB/s)|
+-----------------------------------------------------------------------+
+--------------------------------------+
|  Inner_Iter|    Cur_Time|    rms[Rho]|
+--------------------------------------+
|         110|  0.0000e+00|   -3.143306|
|         120|  0.0000e+00|   -3.120541|
|         130|  0.0000e+00|   -3.083690|
|         140|  0.0000e+00|   -3.125337|
|         150|  0.0000e+00|   -3.185188|
+-----------------------------------------------------------------------+
|        File Writing Summary       |              Filename             |
+-----------------------------------------------------------------------+
|SU2 binary restart                 |restart_flow_databladeVALIDATION_Blade_24.dat|
|                                   |                      (7251.1 MB/s)|
|Paraview                           |volume_flow_databladeVALIDATION_Blade_24.vtu|
|                                   |                     (738.149 MB/s)|
|Paraview surface                   |surface_flowdatabladeVALIDATION_Blade_24.vtu|
|                                   |                     (63.3936 MB/s)|
|SU2 ASCII restart                  |restart_flow_databladeVALIDATION_Blade_24.csv|
|                                   |                       (10.45 MB/s)|
|CSV file                           |surface_flowdatabladeVALIDATION_Blade_24.csv|
|                                   |                     (10.2159 MB/s)|
+-----------------------------------------------------------------------+
+--------------------------------------+
|  Inner_Iter|    Cur_Time|    rms[Rho]|
+--------------------------------------+
|         160|  0.0000e+00|   -3.186346|
|         170|  0.0000e+00|   -3.200034|
|         180|  0.0000e+00|   -3.270099|
|         190|  0.0000e+00|   -3.297485|
|         200|  0.0000e+00|   -3.094086|
+-----------------------------------------------------------------------+
|        File Writing Summary       |              Filename             |
+-----------------------------------------------------------------------+
|SU2 binary restart                 |restart_flow_databladeVALIDATION_Blade_24.dat|
|                                   |                     (6607.68 MB/s)|
|Paraview                           |volume_flow_databladeVALIDATION_Blade_24.vtu|
|                                   |                     (712.392 MB/s)|
|Paraview surface                   |surface_flowdatabladeVALIDATION_Blade_24.vtu|
|                                   |                     (63.9995 MB/s)|
|SU2 ASCII restart                  |restart_flow_databladeVALIDATION_Blade_24.csv|
|                                   |                     (10.6238 MB/s)|
|CSV file                           |surface_flowdatabladeVALIDATION_Blade_24.csv|
|                                   |                     (8.23755 MB/s)|
+-----------------------------------------------------------------------+
+--------------------------------------+
|  Inner_Iter|    Cur_Time|    rms[Rho]|
+--------------------------------------+
|         210|  0.0000e+00|   -2.979836|
|         220|  0.0000e+00|   -3.071035|
|         230|  0.0000e+00|   -3.106649|
|         240|  0.0000e+00|   -3.106080|
|         250|  0.0000e+00|   -3.186467|
+-----------------------------------------------------------------------+
|        File Writing Summary       |              Filename             |
+-----------------------------------------------------------------------+
|SU2 binary restart                 |restart_flow_databladeVALIDATION_Blade_24.dat|
|                                   |                     (6127.99 MB/s)|
|Paraview                           |volume_flow_databladeVALIDATION_Blade_24.vtu|
|                                   |                     (735.206 MB/s)|
|Paraview surface                   |surface_flowdatabladeVALIDATION_Blade_24.vtu|
|                                   |                     (77.1821 MB/s)|
|SU2 ASCII restart                  |restart_flow_databladeVALIDATION_Blade_24.csv|
|                                   |                     (10.7898 MB/s)|
|CSV file                           |surface_flowdatabladeVALIDATION_Blade_24.csv|
|                                   |                     (9.50828 MB/s)|
+-----------------------------------------------------------------------+
+--------------------------------------+
|  Inner_Iter|    Cur_Time|    rms[Rho]|
+--------------------------------------+
|         260|  0.0000e+00|   -3.297821|
|         270|  0.0000e+00|   -3.337584|
|         280|  0.0000e+00|   -3.263066|
|         290|  0.0000e+00|   -3.309196|
|         300|  0.0000e+00|   -3.358571|
+-----------------------------------------------------------------------+
|        File Writing Summary       |              Filename             |
+-----------------------------------------------------------------------+
|SU2 binary restart                 |restart_flow_databladeVALIDATION_Blade_24.dat|
|                                   |                     (8457.72 MB/s)|
|Paraview                           |volume_flow_databladeVALIDATION_Blade_24.vtu|
|                                   |                     (768.435 MB/s)|
|Paraview surface                   |surface_flowdatabladeVALIDATION_Blade_24.vtu|
|                                   |                     (61.7441 MB/s)|
|SU2 ASCII restart                  |restart_flow_databladeVALIDATION_Blade_24.csv|
|                                   |                     (10.7494 MB/s)|
|CSV file                           |surface_flowdatabladeVALIDATION_Blade_24.csv|
|                                   |                      (10.178 MB/s)|
+-----------------------------------------------------------------------+
+--------------------------------------+
|  Inner_Iter|    Cur_Time|    rms[Rho]|
+--------------------------------------+
|         310|  0.0000e+00|   -3.361318|
|         320|  0.0000e+00|   -3.400912|
|         330|  0.0000e+00|   -3.487886|
|         340|  0.0000e+00|   -3.437717|
|         350|  0.0000e+00|   -3.427447|
+-----------------------------------------------------------------------+
|        File Writing Summary       |              Filename             |
+-----------------------------------------------------------------------+
|SU2 binary restart                 |restart_flow_databladeVALIDATION_Blade_24.dat|
|                                   |                     (6355.96 MB/s)|
|Paraview                           |volume_flow_databladeVALIDATION_Blade_24.vtu|
|                                   |                     (617.348 MB/s)|
|Paraview surface                   |surface_flowdatabladeVALIDATION_Blade_24.vtu|
|                                   |                     (64.9617 MB/s)|
|SU2 ASCII restart                  |restart_flow_databladeVALIDATION_Blade_24.csv|
|                                   |                     (10.6399 MB/s)|
|CSV file                           |surface_flowdatabladeVALIDATION_Blade_24.csv|
|                                   |                     (8.41426 MB/s)|
+-----------------------------------------------------------------------+
+--------------------------------------+
|  Inner_Iter|    Cur_Time|    rms[Rho]|
+--------------------------------------+
|         360|  0.0000e+00|   -3.497440|
|         370|  0.0000e+00|   -3.567974|
|         380|  0.0000e+00|   -3.605102|
|         390|  0.0000e+00|   -3.500771|
|         400|  0.0000e+00|   -3.625478|
+-----------------------------------------------------------------------+
|        File Writing Summary       |              Filename             |
+-----------------------------------------------------------------------+
|SU2 binary restart                 |restart_flow_databladeVALIDATION_Blade_24.dat|
|                                   |                     (6046.48 MB/s)|
|Paraview                           |volume_flow_databladeVALIDATION_Blade_24.vtu|
|                                   |                      (703.11 MB/s)|
|Paraview surface                   |surface_flowdatabladeVALIDATION_Blade_24.vtu|
|                                   |                     (63.2108 MB/s)|
|SU2 ASCII restart                  |restart_flow_databladeVALIDATION_Blade_24.csv|
|                                   |                     (10.8959 MB/s)|
|CSV file                           |surface_flowdatabladeVALIDATION_Blade_24.csv|
|                                   |                     (9.75626 MB/s)|
+-----------------------------------------------------------------------+
+--------------------------------------+
|  Inner_Iter|    Cur_Time|    rms[Rho]|
+--------------------------------------+
|         410|  0.0000e+00|   -3.590338|
|         420|  0.0000e+00|   -3.647679|
|         430|  0.0000e+00|   -3.717179|
|         440|  0.0000e+00|   -3.759941|
|         450|  0.0000e+00|   -3.674302|
+-----------------------------------------------------------------------+
|        File Writing Summary       |              Filename             |
+-----------------------------------------------------------------------+
|SU2 binary restart                 |restart_flow_databladeVALIDATION_Blade_24.dat|
|                                   |                     (9465.41 MB/s)|
|Paraview                           |volume_flow_databladeVALIDATION_Blade_24.vtu|
|                                   |                     (756.762 MB/s)|
|Paraview surface                   |surface_flowdatabladeVALIDATION_Blade_24.vtu|
|                                   |                     (51.7163 MB/s)|
|SU2 ASCII restart                  |restart_flow_databladeVALIDATION_Blade_24.csv|
|                                   |                      (9.8764 MB/s)|
|CSV file                           |surface_flowdatabladeVALIDATION_Blade_24.csv|
|                                   |                     (8.22545 MB/s)|
+-----------------------------------------------------------------------+
+--------------------------------------+
|  Inner_Iter|    Cur_Time|    rms[Rho]|
+--------------------------------------+
|         460|  0.0000e+00|   -3.823877|
|         470|  0.0000e+00|   -3.805193|
|         480|  0.0000e+00|   -3.911769|
|         490|  0.0000e+00|   -3.962114|
|         500|  0.0000e+00|   -3.930216|
+-----------------------------------------------------------------------+
|        File Writing Summary       |              Filename             |
+-----------------------------------------------------------------------+
|SU2 binary restart                 |restart_flow_databladeVALIDATION_Blade_24.dat|
|                                   |                      (6562.9 MB/s)|
|Paraview                           |volume_flow_databladeVALIDATION_Blade_24.vtu|
|                                   |                     (576.496 MB/s)|
|Paraview surface                   |surface_flowdatabladeVALIDATION_Blade_24.vtu|
|                                   |                     (42.3537 MB/s)|
|SU2 ASCII restart                  |restart_flow_databladeVALIDATION_Blade_24.csv|
|                                   |                     (9.39126 MB/s)|
|CSV file                           |surface_flowdatabladeVALIDATION_Blade_24.csv|
|                                   |                     (8.70933 MB/s)|
+-----------------------------------------------------------------------+
+--------------------------------------+
|  Inner_Iter|    Cur_Time|    rms[Rho]|
+--------------------------------------+
|         510|  0.0000e+00|   -4.002170|
|         520|  0.0000e+00|   -4.024529|
|         530|  0.0000e+00|   -4.005558|
|         540|  0.0000e+00|   -4.015169|
|         550|  0.0000e+00|   -4.039969|
+-----------------------------------------------------------------------+
|        File Writing Summary       |              Filename             |
+-----------------------------------------------------------------------+
|SU2 binary restart                 |restart_flow_databladeVALIDATION_Blade_24.dat|
|                                   |                     (6772.16 MB/s)|
|Paraview                           |volume_flow_databladeVALIDATION_Blade_24.vtu|
|                                   |                     (744.528 MB/s)|
|Paraview surface                   |surface_flowdatabladeVALIDATION_Blade_24.vtu|
|                                   |                     (59.7221 MB/s)|
|SU2 ASCII restart                  |restart_flow_databladeVALIDATION_Blade_24.csv|
|                                   |                     (10.5919 MB/s)|
|CSV file                           |surface_flowdatabladeVALIDATION_Blade_24.csv|
|                                   |                     (9.49041 MB/s)|
+-----------------------------------------------------------------------+
+--------------------------------------+
|  Inner_Iter|    Cur_Time|    rms[Rho]|
+--------------------------------------+
|         560|  0.0000e+00|   -4.011233|
|         570|  0.0000e+00|   -3.959196|
|         580|  0.0000e+00|   -4.020151|
|         590|  0.0000e+00|   -4.032682|
|         600|  0.0000e+00|   -4.033040|
+-----------------------------------------------------------------------+
|        File Writing Summary       |              Filename             |
+-----------------------------------------------------------------------+
|SU2 binary restart                 |restart_flow_databladeVALIDATION_Blade_24.dat|
|                                   |                     (5198.09 MB/s)|
|Paraview                           |volume_flow_databladeVALIDATION_Blade_24.vtu|
|                                   |                     (649.441 MB/s)|
|Paraview surface                   |surface_flowdatabladeVALIDATION_Blade_24.vtu|
|                                   |                     (51.0408 MB/s)|
|SU2 ASCII restart                  |restart_flow_databladeVALIDATION_Blade_24.csv|
|                                   |                     (10.4164 MB/s)|
|CSV file                           |surface_flowdatabladeVALIDATION_Blade_24.csv|
|                                   |                      (9.2981 MB/s)|
+-----------------------------------------------------------------------+
+--------------------------------------+
|  Inner_Iter|    Cur_Time|    rms[Rho]|
+--------------------------------------+
|         610|  0.0000e+00|   -4.012161|
|         620|  0.0000e+00|   -4.048591|
|         630|  0.0000e+00|   -4.075295|
|         640|  0.0000e+00|   -4.062185|
|         650|  0.0000e+00|   -4.114610|
+-----------------------------------------------------------------------+
|        File Writing Summary       |              Filename             |
+-----------------------------------------------------------------------+
|SU2 binary restart                 |restart_flow_databladeVALIDATION_Blade_24.dat|
|                                   |                     (5270.04 MB/s)|
|Paraview                           |volume_flow_databladeVALIDATION_Blade_24.vtu|
|                                   |                      (676.41 MB/s)|
|Paraview surface                   |surface_flowdatabladeVALIDATION_Blade_24.vtu|
|                                   |                     (64.8081 MB/s)|
|SU2 ASCII restart                  |restart_flow_databladeVALIDATION_Blade_24.csv|
|                                   |                     (9.59769 MB/s)|
|CSV file                           |surface_flowdatabladeVALIDATION_Blade_24.csv|
|                                   |                     (9.73825 MB/s)|
+-----------------------------------------------------------------------+
+--------------------------------------+
|  Inner_Iter|    Cur_Time|    rms[Rho]|
+--------------------------------------+
|         660|  0.0000e+00|   -4.088530|
|         670|  0.0000e+00|   -4.129889|
|         680|  0.0000e+00|   -4.138223|
|         690|  0.0000e+00|   -4.126867|
|         700|  0.0000e+00|   -4.154133|
+-----------------------------------------------------------------------+
|        File Writing Summary       |              Filename             |
+-----------------------------------------------------------------------+
|SU2 binary restart                 |restart_flow_databladeVALIDATION_Blade_24.dat|
|                                   |                     (6809.16 MB/s)|
|Paraview                           |volume_flow_databladeVALIDATION_Blade_24.vtu|
|                                   |                     (676.823 MB/s)|
|Paraview surface                   |surface_flowdatabladeVALIDATION_Blade_24.vtu|
|                                   |                     (51.7185 MB/s)|
|SU2 ASCII restart                  |restart_flow_databladeVALIDATION_Blade_24.csv|
|                                   |                     (10.5002 MB/s)|
|CSV file                           |surface_flowdatabladeVALIDATION_Blade_24.csv|
|                                   |                     (8.62803 MB/s)|
+-----------------------------------------------------------------------+
+--------------------------------------+
|  Inner_Iter|    Cur_Time|    rms[Rho]|
+--------------------------------------+
|         710|  0.0000e+00|   -4.214870|
|         720|  0.0000e+00|   -4.235420|
|         730|  0.0000e+00|   -4.211141|
|         740|  0.0000e+00|   -4.240230|
|         750|  0.0000e+00|   -4.264010|
+-----------------------------------------------------------------------+
|        File Writing Summary       |              Filename             |
+-----------------------------------------------------------------------+
|SU2 binary restart                 |restart_flow_databladeVALIDATION_Blade_24.dat|
|                                   |                      (4571.7 MB/s)|
|Paraview                           |volume_flow_databladeVALIDATION_Blade_24.vtu|
|                                   |                     (693.356 MB/s)|
|Paraview surface                   |surface_flowdatabladeVALIDATION_Blade_24.vtu|
|                                   |                     (48.0289 MB/s)|
|SU2 ASCII restart                  |restart_flow_databladeVALIDATION_Blade_24.csv|
|                                   |                     (10.7384 MB/s)|
|CSV file                           |surface_flowdatabladeVALIDATION_Blade_24.csv|
|                                   |                     (5.91726 MB/s)|
+-----------------------------------------------------------------------+
+--------------------------------------+
|  Inner_Iter|    Cur_Time|    rms[Rho]|
+--------------------------------------+
|         760|  0.0000e+00|   -4.294667|
|         770|  0.0000e+00|   -4.305570|
|         780|  0.0000e+00|   -4.282320|
|         790|  0.0000e+00|   -4.339818|
|         800|  0.0000e+00|   -4.360686|
+-----------------------------------------------------------------------+
|        File Writing Summary       |              Filename             |
+-----------------------------------------------------------------------+
|SU2 binary restart                 |restart_flow_databladeVALIDATION_Blade_24.dat|
|                                   |                     (5145.26 MB/s)|
|Paraview                           |volume_flow_databladeVALIDATION_Blade_24.vtu|
|                                   |                     (701.104 MB/s)|
|Paraview surface                   |surface_flowdatabladeVALIDATION_Blade_24.vtu|
|                                   |                     (55.4144 MB/s)|
|SU2 ASCII restart                  |restart_flow_databladeVALIDATION_Blade_24.csv|
|                                   |                     (10.6107 MB/s)|
|CSV file                           |surface_flowdatabladeVALIDATION_Blade_24.csv|
|                                   |                     (9.00896 MB/s)|
+-----------------------------------------------------------------------+
+--------------------------------------+
|  Inner_Iter|    Cur_Time|    rms[Rho]|
+--------------------------------------+
|         810|  0.0000e+00|   -4.353674|
|         820|  0.0000e+00|   -4.343539|
|         830|  0.0000e+00|   -4.379783|
|         840|  0.0000e+00|   -4.458494|
|         850|  0.0000e+00|   -4.433890|
+-----------------------------------------------------------------------+
|        File Writing Summary       |              Filename             |
+-----------------------------------------------------------------------+
|SU2 binary restart                 |restart_flow_databladeVALIDATION_Blade_24.dat|
|                                   |                        (5487 MB/s)|
|Paraview                           |volume_flow_databladeVALIDATION_Blade_24.vtu|
|                                   |                     (656.707 MB/s)|
|Paraview surface                   |surface_flowdatabladeVALIDATION_Blade_24.vtu|
|                                   |                     (58.8503 MB/s)|
|SU2 ASCII restart                  |restart_flow_databladeVALIDATION_Blade_24.csv|
|                                   |                     (10.5111 MB/s)|
|CSV file                           |surface_flowdatabladeVALIDATION_Blade_24.csv|
|                                   |                     (8.80852 MB/s)|
+-----------------------------------------------------------------------+
+--------------------------------------+
|  Inner_Iter|    Cur_Time|    rms[Rho]|
+--------------------------------------+
|         860|  0.0000e+00|   -4.460072|
|         870|  0.0000e+00|   -4.464314|
|         880|  0.0000e+00|   -4.449964|
|         890|  0.0000e+00|   -4.468570|
|         900|  0.0000e+00|   -4.499094|
+-----------------------------------------------------------------------+
|        File Writing Summary       |              Filename             |
+-----------------------------------------------------------------------+
|SU2 binary restart                 |restart_flow_databladeVALIDATION_Blade_24.dat|
|                                   |                     (2458.59 MB/s)|
|Paraview                           |volume_flow_databladeVALIDATION_Blade_24.vtu|
|                                   |                      (217.05 MB/s)|
|Paraview surface                   |surface_flowdatabladeVALIDATION_Blade_24.vtu|
|                                   |                     (18.8396 MB/s)|
|SU2 ASCII restart                  |restart_flow_databladeVALIDATION_Blade_24.csv|
|                                   |                     (10.0271 MB/s)|
|CSV file                           |surface_flowdatabladeVALIDATION_Blade_24.csv|
|                                   |                       (8.479 MB/s)|
+-----------------------------------------------------------------------+
+--------------------------------------+
|  Inner_Iter|    Cur_Time|    rms[Rho]|
+--------------------------------------+
|         910|  0.0000e+00|   -4.475748|
|         920|  0.0000e+00|   -4.505446|
|         930|  0.0000e+00|   -4.519108|
|         940|  0.0000e+00|   -4.511903|
|         950|  0.0000e+00|   -4.494270|
+-----------------------------------------------------------------------+
|        File Writing Summary       |              Filename             |
+-----------------------------------------------------------------------+
|SU2 binary restart                 |restart_flow_databladeVALIDATION_Blade_24.dat|
|                                   |                     (7079.41 MB/s)|
|Paraview                           |volume_flow_databladeVALIDATION_Blade_24.vtu|
|                                   |                     (771.586 MB/s)|
|Paraview surface                   |surface_flowdatabladeVALIDATION_Blade_24.vtu|
|                                   |                      (52.459 MB/s)|
|SU2 ASCII restart                  |restart_flow_databladeVALIDATION_Blade_24.csv|
|                                   |                     (10.2156 MB/s)|
|CSV file                           |surface_flowdatabladeVALIDATION_Blade_24.csv|
|                                   |                     (8.17519 MB/s)|
+-----------------------------------------------------------------------+
+--------------------------------------+
|  Inner_Iter|    Cur_Time|    rms[Rho]|
+--------------------------------------+
|         960|  0.0000e+00|   -4.496976|
|         970|  0.0000e+00|   -4.491697|
|         980|  0.0000e+00|   -4.510713|
|         990|  0.0000e+00|   -4.569692|
|        1000|  0.0000e+00|   -4.565414|
+-----------------------------------------------------------------------+
|        File Writing Summary       |              Filename             |
+-----------------------------------------------------------------------+
|SU2 binary restart                 |restart_flow_databladeVALIDATION_Blade_24.dat|
|                                   |                     (9139.18 MB/s)|
|Paraview                           |volume_flow_databladeVALIDATION_Blade_24.vtu|
|                                   |                     (15.7397 MB/s)|
|Paraview surface                   |surface_flowdatabladeVALIDATION_Blade_24.vtu|
|                                   |                     (3.58128 MB/s)|
|SU2 ASCII restart                  |restart_flow_databladeVALIDATION_Blade_24.csv|
|                                   |                     (19.8783 MB/s)|
|CSV file                           |surface_flowdatabladeVALIDATION_Blade_24.csv|
|                                   |                     (19.0016 MB/s)|
+-----------------------------------------------------------------------+
+--------------------------------------+
|  Inner_Iter|    Cur_Time|    rms[Rho]|
+--------------------------------------+
|        1010|  0.0000e+00|   -4.589094|
|        1020|  0.0000e+00|   -4.598032|
|        1030|  0.0000e+00|   -4.606990|
|        1040|  0.0000e+00|   -4.611769|
|        1050|  0.0000e+00|   -4.588316|
+-----------------------------------------------------------------------+
|        File Writing Summary       |              Filename             |
+-----------------------------------------------------------------------+
|SU2 binary restart                 |restart_flow_databladeVALIDATION_Blade_24.dat|
|                                   |                       (11819 MB/s)|
|Paraview                           |volume_flow_databladeVALIDATION_Blade_24.vtu|
|                                   |                     (893.733 MB/s)|
|Paraview surface                   |surface_flowdatabladeVALIDATION_Blade_24.vtu|
|                                   |                     (89.5964 MB/s)|
|SU2 ASCII restart                  |restart_flow_databladeVALIDATION_Blade_24.csv|
|                                   |                     (21.3298 MB/s)|
|CSV file                           |surface_flowdatabladeVALIDATION_Blade_24.csv|
|                                   |                     (21.5129 MB/s)|
+-----------------------------------------------------------------------+
+--------------------------------------+
|  Inner_Iter|    Cur_Time|    rms[Rho]|
+--------------------------------------+
|        1060|  0.0000e+00|   -4.612325|
|        1070|  0.0000e+00|   -4.604262|
|        1080|  0.0000e+00|   -4.632579|
|        1090|  0.0000e+00|   -4.642295|
|        1100|  0.0000e+00|   -4.635353|
+-----------------------------------------------------------------------+
|        File Writing Summary       |              Filename             |
+-----------------------------------------------------------------------+
|SU2 binary restart                 |restart_flow_databladeVALIDATION_Blade_24.dat|
|                                   |                     (13042.2 MB/s)|
|Paraview                           |volume_flow_databladeVALIDATION_Blade_24.vtu|
|                                   |                     (1052.48 MB/s)|
|Paraview surface                   |surface_flowdatabladeVALIDATION_Blade_24.vtu|
|                                   |                     (93.1014 MB/s)|
|SU2 ASCII restart                  |restart_flow_databladeVALIDATION_Blade_24.csv|
|                                   |                     (21.3994 MB/s)|
|CSV file                           |surface_flowdatabladeVALIDATION_Blade_24.csv|
|                                   |                     (22.3552 MB/s)|
+-----------------------------------------------------------------------+
+--------------------------------------+
|  Inner_Iter|    Cur_Time|    rms[Rho]|
+--------------------------------------+
|        1110|  0.0000e+00|   -4.664068|
|        1120|  0.0000e+00|   -4.677979|
|        1130|  0.0000e+00|   -4.670152|
|        1140|  0.0000e+00|   -4.652223|
|        1150|  0.0000e+00|   -4.680651|
+-----------------------------------------------------------------------+
|        File Writing Summary       |              Filename             |
+-----------------------------------------------------------------------+
|SU2 binary restart                 |restart_flow_databladeVALIDATION_Blade_24.dat|
|                                   |                     (13591.3 MB/s)|
|Paraview                           |volume_flow_databladeVALIDATION_Blade_24.vtu|
|                                   |                     (1129.73 MB/s)|
|Paraview surface                   |surface_flowdatabladeVALIDATION_Blade_24.vtu|
|                                   |                     (108.558 MB/s)|
|SU2 ASCII restart                  |restart_flow_databladeVALIDATION_Blade_24.csv|
|                                   |                     (21.5784 MB/s)|
|CSV file                           |surface_flowdatabladeVALIDATION_Blade_24.csv|
|                                   |                     (20.5985 MB/s)|
+-----------------------------------------------------------------------+
+--------------------------------------+
|  Inner_Iter|    Cur_Time|    rms[Rho]|
+--------------------------------------+
|        1160|  0.0000e+00|   -4.689566|
|        1170|  0.0000e+00|   -4.684050|
|        1180|  0.0000e+00|   -4.710029|
|        1190|  0.0000e+00|   -4.727608|
|        1200|  0.0000e+00|   -4.744195|
+-----------------------------------------------------------------------+
|        File Writing Summary       |              Filename             |
+-----------------------------------------------------------------------+
|SU2 binary restart                 |restart_flow_databladeVALIDATION_Blade_24.dat|
|                                   |                     (15433.6 MB/s)|
|Paraview                           |volume_flow_databladeVALIDATION_Blade_24.vtu|
|                                   |                     (1015.45 MB/s)|
|Paraview surface                   |surface_flowdatabladeVALIDATION_Blade_24.vtu|
|                                   |                     (92.4161 MB/s)|
|SU2 ASCII restart                  |restart_flow_databladeVALIDATION_Blade_24.csv|
|                                   |                     (20.7082 MB/s)|
|CSV file                           |surface_flowdatabladeVALIDATION_Blade_24.csv|
|                                   |                     (19.1817 MB/s)|
+-----------------------------------------------------------------------+
+--------------------------------------+
|  Inner_Iter|    Cur_Time|    rms[Rho]|
+--------------------------------------+
|        1210|  0.0000e+00|   -4.757569|
|        1220|  0.0000e+00|   -4.763942|
|        1230|  0.0000e+00|   -4.774045|
|        1240|  0.0000e+00|   -4.794005|
|        1250|  0.0000e+00|   -4.810533|
+-----------------------------------------------------------------------+
|        File Writing Summary       |              Filename             |
+-----------------------------------------------------------------------+
|SU2 binary restart                 |restart_flow_databladeVALIDATION_Blade_24.dat|
|                                   |                     (12985.2 MB/s)|
|Paraview                           |volume_flow_databladeVALIDATION_Blade_24.vtu|
|                                   |                     (959.363 MB/s)|
|Paraview surface                   |surface_flowdatabladeVALIDATION_Blade_24.vtu|
|                                   |                     (91.1616 MB/s)|
|SU2 ASCII restart                  |restart_flow_databladeVALIDATION_Blade_24.csv|
|                                   |                     (20.7205 MB/s)|
|CSV file                           |surface_flowdatabladeVALIDATION_Blade_24.csv|
|                                   |                     (20.2468 MB/s)|
+-----------------------------------------------------------------------+
+--------------------------------------+
|  Inner_Iter|    Cur_Time|    rms[Rho]|
+--------------------------------------+
|        1260|  0.0000e+00|   -4.818576|
|        1270|  0.0000e+00|   -4.822146|
|        1280|  0.0000e+00|   -4.830284|
|        1290|  0.0000e+00|   -4.836271|
|        1300|  0.0000e+00|   -4.847949|
+-----------------------------------------------------------------------+
|        File Writing Summary       |              Filename             |
+-----------------------------------------------------------------------+
|SU2 binary restart                 |restart_flow_databladeVALIDATION_Blade_24.dat|
|                                   |                     (10012.1 MB/s)|
|Paraview                           |volume_flow_databladeVALIDATION_Blade_24.vtu|
|                                   |                     (1117.94 MB/s)|
|Paraview surface                   |surface_flowdatabladeVALIDATION_Blade_24.vtu|
|                                   |                     (101.042 MB/s)|
|SU2 ASCII restart                  |restart_flow_databladeVALIDATION_Blade_24.csv|
|                                   |                     (20.5363 MB/s)|
|CSV file                           |surface_flowdatabladeVALIDATION_Blade_24.csv|
|                                   |                     (18.1599 MB/s)|
+-----------------------------------------------------------------------+
+--------------------------------------+
|  Inner_Iter|    Cur_Time|    rms[Rho]|
+--------------------------------------+
|        1310|  0.0000e+00|   -4.854152|
|        1320|  0.0000e+00|   -4.848734|
|        1330|  0.0000e+00|   -4.867708|
|        1340|  0.0000e+00|   -4.877946|
|        1350|  0.0000e+00|   -4.880768|
+-----------------------------------------------------------------------+
|        File Writing Summary       |              Filename             |
+-----------------------------------------------------------------------+
|SU2 binary restart                 |restart_flow_databladeVALIDATION_Blade_24.dat|
|                                   |                       (11708 MB/s)|
|Paraview                           |volume_flow_databladeVALIDATION_Blade_24.vtu|
|                                   |                     (782.834 MB/s)|
|Paraview surface                   |surface_flowdatabladeVALIDATION_Blade_24.vtu|
|                                   |                     (94.7479 MB/s)|
|SU2 ASCII restart                  |restart_flow_databladeVALIDATION_Blade_24.csv|
|                                   |                     (20.8014 MB/s)|
|CSV file                           |surface_flowdatabladeVALIDATION_Blade_24.csv|
|                                   |                     (19.7647 MB/s)|
+-----------------------------------------------------------------------+
+--------------------------------------+
|  Inner_Iter|    Cur_Time|    rms[Rho]|
+--------------------------------------+
|        1360|  0.0000e+00|   -4.887217|
|        1370|  0.0000e+00|   -4.910894|
|        1380|  0.0000e+00|   -4.914149|
|        1390|  0.0000e+00|   -4.918199|
|        1400|  0.0000e+00|   -4.939438|
+-----------------------------------------------------------------------+
|        File Writing Summary       |              Filename             |
+-----------------------------------------------------------------------+
|SU2 binary restart                 |restart_flow_databladeVALIDATION_Blade_24.dat|
|                                   |                     (11190.4 MB/s)|
|Paraview                           |volume_flow_databladeVALIDATION_Blade_24.vtu|
|                                   |                     (435.471 MB/s)|
|Paraview surface                   |surface_flowdatabladeVALIDATION_Blade_24.vtu|
|                                   |                     (96.8295 MB/s)|
|SU2 ASCII restart                  |restart_flow_databladeVALIDATION_Blade_24.csv|
|                                   |                     (20.6956 MB/s)|
|CSV file                           |surface_flowdatabladeVALIDATION_Blade_24.csv|
|                                   |                      (18.751 MB/s)|
+-----------------------------------------------------------------------+
+--------------------------------------+
|  Inner_Iter|    Cur_Time|    rms[Rho]|
+--------------------------------------+
|        1410|  0.0000e+00|   -4.947812|
|        1420|  0.0000e+00|   -4.972519|
|        1430|  0.0000e+00|   -4.988042|
|        1440|  0.0000e+00|   -5.013763|
|        1450|  0.0000e+00|   -5.008507|
+-----------------------------------------------------------------------+
|        File Writing Summary       |              Filename             |
+-----------------------------------------------------------------------+
|SU2 binary restart                 |restart_flow_databladeVALIDATION_Blade_24.dat|
|                                   |                     (13199.7 MB/s)|
|Paraview                           |volume_flow_databladeVALIDATION_Blade_24.vtu|
|                                   |                     (1019.76 MB/s)|
|Paraview surface                   |surface_flowdatabladeVALIDATION_Blade_24.vtu|
|                                   |                     (92.4551 MB/s)|
|SU2 ASCII restart                  |restart_flow_databladeVALIDATION_Blade_24.csv|
|                                   |                     (21.1523 MB/s)|
|CSV file                           |surface_flowdatabladeVALIDATION_Blade_24.csv|
|                                   |                     (20.7437 MB/s)|
+-----------------------------------------------------------------------+
+--------------------------------------+
|  Inner_Iter|    Cur_Time|    rms[Rho]|
+--------------------------------------+
|        1460|  0.0000e+00|   -5.019026|
|        1470|  0.0000e+00|   -5.032080|
|        1480|  0.0000e+00|   -5.033416|
|        1490|  0.0000e+00|   -5.023187|
|        1500|  0.0000e+00|   -5.036224|
+-----------------------------------------------------------------------+
|        File Writing Summary       |              Filename             |
+-----------------------------------------------------------------------+
|SU2 binary restart                 |restart_flow_databladeVALIDATION_Blade_24.dat|
|                                   |                       (12664 MB/s)|
|Paraview                           |volume_flow_databladeVALIDATION_Blade_24.vtu|
|                                   |                     (1114.65 MB/s)|
|Paraview surface                   |surface_flowdatabladeVALIDATION_Blade_24.vtu|
|                                   |                        (94.2 MB/s)|
|SU2 ASCII restart                  |restart_flow_databladeVALIDATION_Blade_24.csv|
|                                   |                     (21.4424 MB/s)|
|CSV file                           |surface_flowdatabladeVALIDATION_Blade_24.csv|
|                                   |                     (20.7519 MB/s)|
+-----------------------------------------------------------------------+
+--------------------------------------+
|  Inner_Iter|    Cur_Time|    rms[Rho]|
+--------------------------------------+
|        1510|  0.0000e+00|   -5.025479|
|        1520|  0.0000e+00|   -5.029562|
|        1530|  0.0000e+00|   -5.042102|
|        1540|  0.0000e+00|   -5.045242|
|        1550|  0.0000e+00|   -5.037756|
+-----------------------------------------------------------------------+
|        File Writing Summary       |              Filename             |
+-----------------------------------------------------------------------+
|SU2 binary restart                 |restart_flow_databladeVALIDATION_Blade_24.dat|
|                                   |                     (8998.88 MB/s)|
|Paraview                           |volume_flow_databladeVALIDATION_Blade_24.vtu|
|                                   |                        (1067 MB/s)|
|Paraview surface                   |surface_flowdatabladeVALIDATION_Blade_24.vtu|
|                                   |                     (104.693 MB/s)|
|SU2 ASCII restart                  |restart_flow_databladeVALIDATION_Blade_24.csv|
|                                   |                     (21.3853 MB/s)|
|CSV file                           |surface_flowdatabladeVALIDATION_Blade_24.csv|
|                                   |                     (20.2794 MB/s)|
+-----------------------------------------------------------------------+
+--------------------------------------+
|  Inner_Iter|    Cur_Time|    rms[Rho]|
+--------------------------------------+
|        1560|  0.0000e+00|   -5.034419|
|        1570|  0.0000e+00|   -5.041907|
|        1580|  0.0000e+00|   -5.040694|
|        1590|  0.0000e+00|   -5.031896|
|        1600|  0.0000e+00|   -5.035900|
+-----------------------------------------------------------------------+
|        File Writing Summary       |              Filename             |
+-----------------------------------------------------------------------+
|SU2 binary restart                 |restart_flow_databladeVALIDATION_Blade_24.dat|
|                                   |                     (13977.2 MB/s)|
|Paraview                           |volume_flow_databladeVALIDATION_Blade_24.vtu|
|                                   |                     (996.414 MB/s)|
|Paraview surface                   |surface_flowdatabladeVALIDATION_Blade_24.vtu|
|                                   |                     (80.4774 MB/s)|
|SU2 ASCII restart                  |restart_flow_databladeVALIDATION_Blade_24.csv|
|                                   |                     (21.8454 MB/s)|
|CSV file                           |surface_flowdatabladeVALIDATION_Blade_24.csv|
|                                   |                     (19.5922 MB/s)|
+-----------------------------------------------------------------------+
+--------------------------------------+
|  Inner_Iter|    Cur_Time|    rms[Rho]|
+--------------------------------------+
|        1610|  0.0000e+00|   -5.050174|
|        1620|  0.0000e+00|   -5.043350|
|        1630|  0.0000e+00|   -5.050365|
|        1640|  0.0000e+00|   -5.067949|
|        1650|  0.0000e+00|   -5.079526|
+-----------------------------------------------------------------------+
|        File Writing Summary       |              Filename             |
+-----------------------------------------------------------------------+
|SU2 binary restart                 |restart_flow_databladeVALIDATION_Blade_24.dat|
|                                   |                     (10910.8 MB/s)|
|Paraview                           |volume_flow_databladeVALIDATION_Blade_24.vtu|
|                                   |                     (1082.18 MB/s)|
|Paraview surface                   |surface_flowdatabladeVALIDATION_Blade_24.vtu|
|                                   |                      (115.84 MB/s)|
|SU2 ASCII restart                  |restart_flow_databladeVALIDATION_Blade_24.csv|
|                                   |                     (21.5405 MB/s)|
|CSV file                           |surface_flowdatabladeVALIDATION_Blade_24.csv|
|                                   |                     (21.2897 MB/s)|
+-----------------------------------------------------------------------+
+--------------------------------------+
|  Inner_Iter|    Cur_Time|    rms[Rho]|
+--------------------------------------+
|        1660|  0.0000e+00|   -5.082996|
|        1670|  0.0000e+00|   -5.103407|
|        1680|  0.0000e+00|   -5.125659|
|        1690|  0.0000e+00|   -5.135333|
|        1700|  0.0000e+00|   -5.145860|
+-----------------------------------------------------------------------+
|        File Writing Summary       |              Filename             |
+-----------------------------------------------------------------------+
|SU2 binary restart                 |restart_flow_databladeVALIDATION_Blade_24.dat|
|                                   |                     (13525.3 MB/s)|
|Paraview                           |volume_flow_databladeVALIDATION_Blade_24.vtu|
|                                   |                     (1030.58 MB/s)|
|Paraview surface                   |surface_flowdatabladeVALIDATION_Blade_24.vtu|
|                                   |                     (83.2192 MB/s)|
|SU2 ASCII restart                  |restart_flow_databladeVALIDATION_Blade_24.csv|
|                                   |                     (21.3873 MB/s)|
|CSV file                           |surface_flowdatabladeVALIDATION_Blade_24.csv|
|                                   |                     (20.9606 MB/s)|
+-----------------------------------------------------------------------+
+--------------------------------------+
|  Inner_Iter|    Cur_Time|    rms[Rho]|
+--------------------------------------+
|        1710|  0.0000e+00|   -5.169069|
|        1720|  0.0000e+00|   -5.187351|
|        1730|  0.0000e+00|   -5.204722|
|        1740|  0.0000e+00|   -5.218015|
|        1750|  0.0000e+00|   -5.229088|
+-----------------------------------------------------------------------+
|        File Writing Summary       |              Filename             |
+-----------------------------------------------------------------------+
|SU2 binary restart                 |restart_flow_databladeVALIDATION_Blade_24.dat|
|                                   |                     (13567.5 MB/s)|
|Paraview                           |volume_flow_databladeVALIDATION_Blade_24.vtu|
|                                   |                     (1096.05 MB/s)|
|Paraview surface                   |surface_flowdatabladeVALIDATION_Blade_24.vtu|
|                                   |                     (103.156 MB/s)|
|SU2 ASCII restart                  |restart_flow_databladeVALIDATION_Blade_24.csv|
|                                   |                     (21.5505 MB/s)|
|CSV file                           |surface_flowdatabladeVALIDATION_Blade_24.csv|
|                                   |                     (19.9788 MB/s)|
+-----------------------------------------------------------------------+
+--------------------------------------+
|  Inner_Iter|    Cur_Time|    rms[Rho]|
+--------------------------------------+
|        1760|  0.0000e+00|   -5.237589|
|        1770|  0.0000e+00|   -5.254074|
|        1780|  0.0000e+00|   -5.252754|
|        1790|  0.0000e+00|   -5.239020|
|        1800|  0.0000e+00|   -5.245523|
+-----------------------------------------------------------------------+
|        File Writing Summary       |              Filename             |
+-----------------------------------------------------------------------+
|SU2 binary restart                 |restart_flow_databladeVALIDATION_Blade_24.dat|
|                                   |                     (12686.6 MB/s)|
|Paraview                           |volume_flow_databladeVALIDATION_Blade_24.vtu|
|                                   |                     (1156.94 MB/s)|
|Paraview surface                   |surface_flowdatabladeVALIDATION_Blade_24.vtu|
|                                   |                      (83.366 MB/s)|
|SU2 ASCII restart                  |restart_flow_databladeVALIDATION_Blade_24.csv|
|                                   |                     (21.5359 MB/s)|
|CSV file                           |surface_flowdatabladeVALIDATION_Blade_24.csv|
|                                   |                     (20.0331 MB/s)|
+-----------------------------------------------------------------------+
+--------------------------------------+
|  Inner_Iter|    Cur_Time|    rms[Rho]|
+--------------------------------------+
|        1810|  0.0000e+00|   -5.236646|
|        1820|  0.0000e+00|   -5.239537|
|        1830|  0.0000e+00|   -5.249223|
|        1840|  0.0000e+00|   -5.272470|
|        1850|  0.0000e+00|   -5.301217|
+-----------------------------------------------------------------------+
|        File Writing Summary       |              Filename             |
+-----------------------------------------------------------------------+
|SU2 binary restart                 |restart_flow_databladeVALIDATION_Blade_24.dat|
|                                   |                     (13023.2 MB/s)|
|Paraview                           |volume_flow_databladeVALIDATION_Blade_24.vtu|
|                                   |                     (942.525 MB/s)|
|Paraview surface                   |surface_flowdatabladeVALIDATION_Blade_24.vtu|
|                                   |                     (67.5462 MB/s)|
|SU2 ASCII restart                  |restart_flow_databladeVALIDATION_Blade_24.csv|
|                                   |                     (21.3462 MB/s)|
|CSV file                           |surface_flowdatabladeVALIDATION_Blade_24.csv|
|                                   |                     (20.3083 MB/s)|
+-----------------------------------------------------------------------+
+--------------------------------------+
|  Inner_Iter|    Cur_Time|    rms[Rho]|
+--------------------------------------+
|        1860|  0.0000e+00|   -5.321731|
|        1870|  0.0000e+00|   -5.338524|
|        1880|  0.0000e+00|   -5.358421|
|        1890|  0.0000e+00|   -5.380903|
|        1900|  0.0000e+00|   -5.424287|
+-----------------------------------------------------------------------+
|        File Writing Summary       |              Filename             |
+-----------------------------------------------------------------------+
|SU2 binary restart                 |restart_flow_databladeVALIDATION_Blade_24.dat|
|                                   |                     (11289.6 MB/s)|
|Paraview                           |volume_flow_databladeVALIDATION_Blade_24.vtu|
|                                   |                     (1063.65 MB/s)|
|Paraview surface                   |surface_flowdatabladeVALIDATION_Blade_24.vtu|
|                                   |                     (89.7565 MB/s)|
|SU2 ASCII restart                  |restart_flow_databladeVALIDATION_Blade_24.csv|
|                                   |                     (21.0338 MB/s)|
|CSV file                           |surface_flowdatabladeVALIDATION_Blade_24.csv|
|                                   |                     (21.1598 MB/s)|
+-----------------------------------------------------------------------+
+--------------------------------------+
|  Inner_Iter|    Cur_Time|    rms[Rho]|
+--------------------------------------+
|        1910|  0.0000e+00|   -5.429260|
|        1920|  0.0000e+00|   -5.405492|
|        1930|  0.0000e+00|   -5.423401|
|        1940|  0.0000e+00|   -5.429227|
|        1950|  0.0000e+00|   -5.405018|
+-----------------------------------------------------------------------+
|        File Writing Summary       |              Filename             |
+-----------------------------------------------------------------------+
|SU2 binary restart                 |restart_flow_databladeVALIDATION_Blade_24.dat|
|                                   |                     (10818.8 MB/s)|
|Paraview                           |volume_flow_databladeVALIDATION_Blade_24.vtu|
|                                   |                     (1215.72 MB/s)|
|Paraview surface                   |surface_flowdatabladeVALIDATION_Blade_24.vtu|
|                                   |                     (98.7248 MB/s)|
|SU2 ASCII restart                  |restart_flow_databladeVALIDATION_Blade_24.csv|
|                                   |                     (21.0061 MB/s)|
|CSV file                           |surface_flowdatabladeVALIDATION_Blade_24.csv|
|                                   |                     (20.6641 MB/s)|
+-----------------------------------------------------------------------+
+--------------------------------------+
|  Inner_Iter|    Cur_Time|    rms[Rho]|
+--------------------------------------+
|        1960|  0.0000e+00|   -5.404279|
|        1970|  0.0000e+00|   -5.435854|
|        1980|  0.0000e+00|   -5.392079|
|        1990|  0.0000e+00|   -5.424308|
|        2000|  0.0000e+00|   -5.443036|
+-----------------------------------------------------------------------+
|        File Writing Summary       |              Filename             |
+-----------------------------------------------------------------------+
|SU2 binary restart                 |restart_flow_databladeVALIDATION_Blade_24.dat|
|                                   |                     (13144.2 MB/s)|
|Paraview                           |volume_flow_databladeVALIDATION_Blade_24.vtu|
|                                   |                     (1079.13 MB/s)|
|Paraview surface                   |surface_flowdatabladeVALIDATION_Blade_24.vtu|
|                                   |                     (96.6315 MB/s)|
|SU2 ASCII restart                  |restart_flow_databladeVALIDATION_Blade_24.csv|
|                                   |                     (21.3795 MB/s)|
|CSV file                           |surface_flowdatabladeVALIDATION_Blade_24.csv|
|                                   |                     (21.7423 MB/s)|
+-----------------------------------------------------------------------+
+--------------------------------------+
|  Inner_Iter|    Cur_Time|    rms[Rho]|
+--------------------------------------+
|        2010|  0.0000e+00|   -5.442766|
|        2020|  0.0000e+00|   -5.498290|
|        2030|  0.0000e+00|   -5.473876|
|        2040|  0.0000e+00|   -5.482291|
|        2050|  0.0000e+00|   -5.550346|
+-----------------------------------------------------------------------+
|        File Writing Summary       |              Filename             |
+-----------------------------------------------------------------------+
|SU2 binary restart                 |restart_flow_databladeVALIDATION_Blade_24.dat|
|                                   |                     (12559.6 MB/s)|
|Paraview                           |volume_flow_databladeVALIDATION_Blade_24.vtu|
|                                   |                     (1072.95 MB/s)|
|Paraview surface                   |surface_flowdatabladeVALIDATION_Blade_24.vtu|
|                                   |                     (85.8324 MB/s)|
|SU2 ASCII restart                  |restart_flow_databladeVALIDATION_Blade_24.csv|
|                                   |                     (21.1145 MB/s)|
|CSV file                           |surface_flowdatabladeVALIDATION_Blade_24.csv|
|                                   |                     (19.1167 MB/s)|
+-----------------------------------------------------------------------+
+--------------------------------------+
|  Inner_Iter|    Cur_Time|    rms[Rho]|
+--------------------------------------+
|        2060|  0.0000e+00|   -5.485363|
|        2070|  0.0000e+00|   -5.530398|
|        2080|  0.0000e+00|   -5.544739|
|        2090|  0.0000e+00|   -5.547644|
|        2100|  0.0000e+00|   -5.549109|
+-----------------------------------------------------------------------+
|        File Writing Summary       |              Filename             |
+-----------------------------------------------------------------------+
|SU2 binary restart                 |restart_flow_databladeVALIDATION_Blade_24.dat|
|                                   |                     (13265.5 MB/s)|
|Paraview                           |volume_flow_databladeVALIDATION_Blade_24.vtu|
|                                   |                     (1036.03 MB/s)|
|Paraview surface                   |surface_flowdatabladeVALIDATION_Blade_24.vtu|
|                                   |                     (103.311 MB/s)|
|SU2 ASCII restart                  |restart_flow_databladeVALIDATION_Blade_24.csv|
|                                   |                     (21.1089 MB/s)|
|CSV file                           |surface_flowdatabladeVALIDATION_Blade_24.csv|
|                                   |                     (19.6705 MB/s)|
+-----------------------------------------------------------------------+
+--------------------------------------+
|  Inner_Iter|    Cur_Time|    rms[Rho]|
+--------------------------------------+
|        2110|  0.0000e+00|   -5.579903|
|        2120|  0.0000e+00|   -5.635835|
|        2130|  0.0000e+00|   -5.684090|
|        2140|  0.0000e+00|   -5.702292|
|        2150|  0.0000e+00|   -5.763567|
+-----------------------------------------------------------------------+
|        File Writing Summary       |              Filename             |
+-----------------------------------------------------------------------+
|SU2 binary restart                 |restart_flow_databladeVALIDATION_Blade_24.dat|
|                                   |                     (13665.3 MB/s)|
|Paraview                           |volume_flow_databladeVALIDATION_Blade_24.vtu|
|                                   |                     (1074.41 MB/s)|
|Paraview surface                   |surface_flowdatabladeVALIDATION_Blade_24.vtu|
|                                   |                     (111.192 MB/s)|
|SU2 ASCII restart                  |restart_flow_databladeVALIDATION_Blade_24.csv|
|                                   |                     (21.6732 MB/s)|
|CSV file                           |surface_flowdatabladeVALIDATION_Blade_24.csv|
|                                   |                     (20.0944 MB/s)|
+-----------------------------------------------------------------------+
+--------------------------------------+
|  Inner_Iter|    Cur_Time|    rms[Rho]|
+--------------------------------------+
|        2160|  0.0000e+00|   -5.700594|
|        2170|  0.0000e+00|   -5.779046|
|        2180|  0.0000e+00|   -5.741593|
|        2190|  0.0000e+00|   -5.781778|
|        2200|  0.0000e+00|   -5.830690|
+-----------------------------------------------------------------------+
|        File Writing Summary       |              Filename             |
+-----------------------------------------------------------------------+
|SU2 binary restart                 |restart_flow_databladeVALIDATION_Blade_24.dat|
|                                   |                     (12791.3 MB/s)|
|Paraview                           |volume_flow_databladeVALIDATION_Blade_24.vtu|
|                                   |                      (1094.4 MB/s)|
|Paraview surface                   |surface_flowdatabladeVALIDATION_Blade_24.vtu|
|                                   |                     (88.1839 MB/s)|
|SU2 ASCII restart                  |restart_flow_databladeVALIDATION_Blade_24.csv|
|                                   |                     (21.4396 MB/s)|
|CSV file                           |surface_flowdatabladeVALIDATION_Blade_24.csv|
|                                   |                     (19.8021 MB/s)|
+-----------------------------------------------------------------------+
+--------------------------------------+
|  Inner_Iter|    Cur_Time|    rms[Rho]|
+--------------------------------------+
|        2210|  0.0000e+00|   -5.865377|
|        2220|  0.0000e+00|   -5.933873|
|        2230|  0.0000e+00|   -5.924871|
|        2240|  0.0000e+00|   -5.877780|
|        2250|  0.0000e+00|   -5.945205|
+-----------------------------------------------------------------------+
|        File Writing Summary       |              Filename             |
+-----------------------------------------------------------------------+
|SU2 binary restart                 |restart_flow_databladeVALIDATION_Blade_24.dat|
|                                   |                     (12301.2 MB/s)|
|Paraview                           |volume_flow_databladeVALIDATION_Blade_24.vtu|
|                                   |                     (1047.85 MB/s)|
|Paraview surface                   |surface_flowdatabladeVALIDATION_Blade_24.vtu|
|                                   |                     (91.0927 MB/s)|
|SU2 ASCII restart                  |restart_flow_databladeVALIDATION_Blade_24.csv|
|                                   |                      (20.946 MB/s)|
|CSV file                           |surface_flowdatabladeVALIDATION_Blade_24.csv|
|                                   |                     (19.6518 MB/s)|
+-----------------------------------------------------------------------+
+--------------------------------------+
|  Inner_Iter|    Cur_Time|    rms[Rho]|
+--------------------------------------+
|        2260|  0.0000e+00|   -5.943540|
|        2270|  0.0000e+00|   -5.901213|
|        2280|  0.0000e+00|   -5.944494|
|        2290|  0.0000e+00|   -5.970772|
|        2300|  0.0000e+00|   -5.963395|
+-----------------------------------------------------------------------+
|        File Writing Summary       |              Filename             |
+-----------------------------------------------------------------------+
|SU2 binary restart                 |restart_flow_databladeVALIDATION_Blade_24.dat|
|                                   |                     (1665.85 MB/s)|
|Paraview                           |volume_flow_databladeVALIDATION_Blade_24.vtu|
|                                   |                     (900.906 MB/s)|
|Paraview surface                   |surface_flowdatabladeVALIDATION_Blade_24.vtu|
|                                   |                     (103.311 MB/s)|
|SU2 ASCII restart                  |restart_flow_databladeVALIDATION_Blade_24.csv|
|                                   |                     (21.4987 MB/s)|
|CSV file                           |surface_flowdatabladeVALIDATION_Blade_24.csv|
|                                   |                     (21.1923 MB/s)|
+-----------------------------------------------------------------------+
+--------------------------------------+
|  Inner_Iter|    Cur_Time|    rms[Rho]|
+--------------------------------------+
|        2310|  0.0000e+00|   -5.986689|
|        2320|  0.0000e+00|   -6.030718|
|        2330|  0.0000e+00|   -6.033897|
|        2340|  0.0000e+00|   -5.988364|
|        2350|  0.0000e+00|   -6.021594|
+-----------------------------------------------------------------------+
|        File Writing Summary       |              Filename             |
+-----------------------------------------------------------------------+
|SU2 binary restart                 |restart_flow_databladeVALIDATION_Blade_24.dat|
|                                   |                     (10416.5 MB/s)|
|Paraview                           |volume_flow_databladeVALIDATION_Blade_24.vtu|
[...]
+-----------------------------------------------------------------------+
|SU2 binary restart                 |restart_flow_databladeVALIDATION_Blade_24.dat|
|                                   |                     (13793.3 MB/s)|
|Paraview                           |volume_flow_databladeVALIDATION_Blade_24.vtu|
|                                   |                     (1097.54 MB/s)|
|Paraview surface                   |surface_flowdatabladeVALIDATION_Blade_24.vtu|
|                                   |                     (102.107 MB/s)|
|SU2 ASCII restart                  |restart_flow_databladeVALIDATION_Blade_24.csv|
|                                   |                     (21.4678 MB/s)|
|CSV file                           |surface_flowdatabladeVALIDATION_Blade_24.csv|
|                                   |                     (21.9541 MB/s)|
+-----------------------------------------------------------------------+
+--------------------------------------+
|  Inner_Iter|    Cur_Time|    rms[Rho]|
+--------------------------------------+
|        3060|  0.0000e+00|   -6.663594|
|        3070|  0.0000e+00|   -6.668357|
|        3080|  0.0000e+00|   -6.619061|
|        3090|  0.0000e+00|   -6.675308|
|        3100|  0.0000e+00|   -6.695032|
+-----------------------------------------------------------------------+
|        File Writing Summary       |              Filename             |
+-----------------------------------------------------------------------+
|SU2 binary restart                 |restart_flow_databladeVALIDATION_Blade_24.dat|
|                                   |                     (13569.6 MB/s)|
|Paraview                           |volume_flow_databladeVALIDATION_Blade_24.vtu|
|                                   |                     (990.906 MB/s)|
|Paraview surface                   |surface_flowdatabladeVALIDATION_Blade_24.vtu|
|                                   |                     (84.3076 MB/s)|
|SU2 ASCII restart                  |restart_flow_databladeVALIDATION_Blade_24.csv|
|                                   |                     (21.5857 MB/s)|
|CSV file                           |surface_flowdatabladeVALIDATION_Blade_24.csv|
|                                   |                     (20.8517 MB/s)|
+-----------------------------------------------------------------------+
+--------------------------------------+
|  Inner_Iter|    Cur_Time|    rms[Rho]|
+--------------------------------------+
|        3110|  0.0000e+00|   -6.689865|
|        3120|  0.0000e+00|   -6.670475|
|        3130|  0.0000e+00|   -6.726230|
|        3140|  0.0000e+00|   -6.736607|
|        3150|  0.0000e+00|   -6.733870|
+-----------------------------------------------------------------------+
|        File Writing Summary       |              Filename             |
+-----------------------------------------------------------------------+
|SU2 binary restart                 |restart_flow_databladeVALIDATION_Blade_24.dat|
|                                   |                     (14317.5 MB/s)|
|Paraview                           |volume_flow_databladeVALIDATION_Blade_24.vtu|
|                                   |                     (1070.33 MB/s)|
|Paraview surface                   |surface_flowdatabladeVALIDATION_Blade_24.vtu|
|                                   |                     (95.1142 MB/s)|
|SU2 ASCII restart                  |restart_flow_databladeVALIDATION_Blade_24.csv|
|                                   |                     (21.0976 MB/s)|
|CSV file                           |surface_flowdatabladeVALIDATION_Blade_24.csv|
|                                   |                     (21.4914 MB/s)|
+-----------------------------------------------------------------------+
+--------------------------------------+
|  Inner_Iter|    Cur_Time|    rms[Rho]|
+--------------------------------------+
|        3160|  0.0000e+00|   -6.715340|
|        3170|  0.0000e+00|   -6.749214|
|        3180|  0.0000e+00|   -6.742051|
|        3190|  0.0000e+00|   -6.684520|
|        3200|  0.0000e+00|   -6.740553|
+-----------------------------------------------------------------------+
|        File Writing Summary       |              Filename             |
+-----------------------------------------------------------------------+
|SU2 binary restart                 |restart_flow_databladeVALIDATION_Blade_24.dat|
|                                   |                     (13684.2 MB/s)|
|Paraview                           |volume_flow_databladeVALIDATION_Blade_24.vtu|
|                                   |                     (1079.41 MB/s)|
|Paraview surface                   |surface_flowdatabladeVALIDATION_Blade_24.vtu|
|                                   |                     (126.561 MB/s)|
|SU2 ASCII restart                  |restart_flow_databladeVALIDATION_Blade_24.csv|
|                                   |                      (21.329 MB/s)|
|CSV file                           |surface_flowdatabladeVALIDATION_Blade_24.csv|
|                                   |                     (20.4861 MB/s)|
+-----------------------------------------------------------------------+
+--------------------------------------+
|  Inner_Iter|    Cur_Time|    rms[Rho]|
+--------------------------------------+
|        3210|  0.0000e+00|   -6.738764|
|        3220|  0.0000e+00|   -6.701048|
|        3230|  0.0000e+00|   -6.741553|
|        3240|  0.0000e+00|   -6.776380|
|        3250|  0.0000e+00|   -6.773757|
+-----------------------------------------------------------------------+
|        File Writing Summary       |              Filename             |
+-----------------------------------------------------------------------+
|SU2 binary restart                 |restart_flow_databladeVALIDATION_Blade_24.dat|
|                                   |                     (13590.3 MB/s)|
|Paraview                           |volume_flow_databladeVALIDATION_Blade_24.vtu|
|                                   |                     (1132.13 MB/s)|
|Paraview surface                   |surface_flowdatabladeVALIDATION_Blade_24.vtu|
|                                   |                     (133.714 MB/s)|
|SU2 ASCII restart                  |restart_flow_databladeVALIDATION_Blade_24.csv|
|                                   |                     (21.4214 MB/s)|
|CSV file                           |surface_flowdatabladeVALIDATION_Blade_24.csv|
|                                   |                     (21.9297 MB/s)|
+-----------------------------------------------------------------------+
+--------------------------------------+
|  Inner_Iter|    Cur_Time|    rms[Rho]|
+--------------------------------------+
|        3260|  0.0000e+00|   -6.762860|
|        3270|  0.0000e+00|   -6.795597|
|        3280|  0.0000e+00|   -6.812957|
|        3290|  0.0000e+00|   -6.782916|
|        3300|  0.0000e+00|   -6.779140|
+-----------------------------------------------------------------------+
|        File Writing Summary       |              Filename             |
+-----------------------------------------------------------------------+
|SU2 binary restart                 |restart_flow_databladeVALIDATION_Blade_24.dat|
|                                   |                     (12952.2 MB/s)|
|Paraview                           |volume_flow_databladeVALIDATION_Blade_24.vtu|
|                                   |                      (1021.2 MB/s)|
|Paraview surface                   |surface_flowdatabladeVALIDATION_Blade_24.vtu|
|                                   |                     (99.0737 MB/s)|
|SU2 ASCII restart                  |restart_flow_databladeVALIDATION_Blade_24.csv|
|                                   |                     (21.5778 MB/s)|
|CSV file                           |surface_flowdatabladeVALIDATION_Blade_24.csv|
|                                   |                     (21.7493 MB/s)|
+-----------------------------------------------------------------------+
+--------------------------------------+
|  Inner_Iter|    Cur_Time|    rms[Rho]|
+--------------------------------------+
|        3310|  0.0000e+00|   -6.811817|
|        3320|  0.0000e+00|   -6.801337|
|        3330|  0.0000e+00|   -6.754315|
|        3340|  0.0000e+00|   -6.785376|
|        3350|  0.0000e+00|   -6.814595|
+-----------------------------------------------------------------------+
|        File Writing Summary       |              Filename             |
+-----------------------------------------------------------------------+
|SU2 binary restart                 |restart_flow_databladeVALIDATION_Blade_24.dat|
|                                   |                     (9680.35 MB/s)|
|Paraview                           |volume_flow_databladeVALIDATION_Blade_24.vtu|
|                                   |                     (1066.94 MB/s)|
|Paraview surface                   |surface_flowdatabladeVALIDATION_Blade_24.vtu|
|                                   |                     (91.9824 MB/s)|
|SU2 ASCII restart                  |restart_flow_databladeVALIDATION_Blade_24.csv|
|                                   |                     (21.1059 MB/s)|
|CSV file                           |surface_flowdatabladeVALIDATION_Blade_24.csv|
|                                   |                     (19.8243 MB/s)|
+-----------------------------------------------------------------------+
+--------------------------------------+
|  Inner_Iter|    Cur_Time|    rms[Rho]|
+--------------------------------------+
|        3360|  0.0000e+00|   -6.808827|
|        3370|  0.0000e+00|   -6.772318|
|        3380|  0.0000e+00|   -6.851695|
|        3390|  0.0000e+00|   -6.868393|
|        3400|  0.0000e+00|   -6.849388|
+-----------------------------------------------------------------------+
|        File Writing Summary       |              Filename             |
+-----------------------------------------------------------------------+
|SU2 binary restart                 |restart_flow_databladeVALIDATION_Blade_24.dat|
|                                   |                     (8280.86 MB/s)|
|Paraview                           |volume_flow_databladeVALIDATION_Blade_24.vtu|
|                                   |                     (1031.03 MB/s)|
|Paraview surface                   |surface_flowdatabladeVALIDATION_Blade_24.vtu|
|                                   |                     (97.8672 MB/s)|
|SU2 ASCII restart                  |restart_flow_databladeVALIDATION_Blade_24.csv|
|                                   |                     (20.4799 MB/s)|
|CSV file                           |surface_flowdatabladeVALIDATION_Blade_24.csv|
|                                   |                     (16.9064 MB/s)|
+-----------------------------------------------------------------------+
+--------------------------------------+
|  Inner_Iter|    Cur_Time|    rms[Rho]|
+--------------------------------------+
|        3410|  0.0000e+00|   -6.861493|
|        3420|  0.0000e+00|   -6.918038|
|        3430|  0.0000e+00|   -6.915607|
|        3440|  0.0000e+00|   -6.852252|
|        3450|  0.0000e+00|   -6.920046|
+-----------------------------------------------------------------------+
|        File Writing Summary       |              Filename             |
+-----------------------------------------------------------------------+
|SU2 binary restart                 |restart_flow_databladeVALIDATION_Blade_24.dat|
|                                   |                     (10704.4 MB/s)|
|Paraview                           |volume_flow_databladeVALIDATION_Blade_24.vtu|
|                                   |                      (955.88 MB/s)|
|Paraview surface                   |surface_flowdatabladeVALIDATION_Blade_24.vtu|
|                                   |                     (97.9268 MB/s)|
|SU2 ASCII restart                  |restart_flow_databladeVALIDATION_Blade_24.csv|
|                                   |                     (21.2326 MB/s)|
|CSV file                           |surface_flowdatabladeVALIDATION_Blade_24.csv|
|                                   |                     (21.5442 MB/s)|
+-----------------------------------------------------------------------+
+--------------------------------------+
|  Inner_Iter|    Cur_Time|    rms[Rho]|
+--------------------------------------+
|        3460|  0.0000e+00|   -6.915764|
|        3470|  0.0000e+00|   -6.874031|
|        3480|  0.0000e+00|   -6.872702|
|        3490|  0.0000e+00|   -6.914002|
|        3500|  0.0000e+00|   -6.911301|
+-----------------------------------------------------------------------+
|        File Writing Summary       |              Filename             |
+-----------------------------------------------------------------------+
|SU2 binary restart                 |restart_flow_databladeVALIDATION_Blade_24.dat|
|                                   |                     (8908.01 MB/s)|
|Paraview                           |volume_flow_databladeVALIDATION_Blade_24.vtu|
|                                   |                     (1175.15 MB/s)|
|Paraview surface                   |surface_flowdatabladeVALIDATION_Blade_24.vtu|
|                                   |                     (132.793 MB/s)|
|SU2 ASCII restart                  |restart_flow_databladeVALIDATION_Blade_24.csv|
|                                   |                     (21.0269 MB/s)|
|CSV file                           |surface_flowdatabladeVALIDATION_Blade_24.csv|
|                                   |                     (22.4171 MB/s)|
+-----------------------------------------------------------------------+
+--------------------------------------+
|  Inner_Iter|    Cur_Time|    rms[Rho]|
+--------------------------------------+
|        3510|  0.0000e+00|   -6.865901|
|        3520|  0.0000e+00|   -6.914958|
|        3530|  0.0000e+00|   -6.946453|
|        3540|  0.0000e+00|   -6.938517|
|        3550|  0.0000e+00|   -6.948870|
+-----------------------------------------------------------------------+
|        File Writing Summary       |              Filename             |
+-----------------------------------------------------------------------+
|SU2 binary restart                 |restart_flow_databladeVALIDATION_Blade_24.dat|
|                                   |                     (10856.3 MB/s)|
|Paraview                           |volume_flow_databladeVALIDATION_Blade_24.vtu|
|                                   |                     (848.332 MB/s)|
|Paraview surface                   |surface_flowdatabladeVALIDATION_Blade_24.vtu|
|                                   |                      (112.52 MB/s)|
|SU2 ASCII restart                  |restart_flow_databladeVALIDATION_Blade_24.csv|
|                                   |                     (21.1489 MB/s)|
|CSV file                           |surface_flowdatabladeVALIDATION_Blade_24.csv|
|                                   |                     (20.9991 MB/s)|
+-----------------------------------------------------------------------+
+--------------------------------------+
|  Inner_Iter|    Cur_Time|    rms[Rho]|
+--------------------------------------+
|        3560|  0.0000e+00|   -6.989779|
|        3570|  0.0000e+00|   -6.980447|
|        3580|  0.0000e+00|   -6.921458|
|        3590|  0.0000e+00|   -6.974056|
|        3600|  0.0000e+00|   -6.961098|
+-----------------------------------------------------------------------+
|        File Writing Summary       |              Filename             |
+-----------------------------------------------------------------------+
|SU2 binary restart                 |restart_flow_databladeVALIDATION_Blade_24.dat|
|                                   |                     (16501.1 MB/s)|
|Paraview                           |volume_flow_databladeVALIDATION_Blade_24.vtu|
|                                   |                        (1054 MB/s)|
|Paraview surface                   |surface_flowdatabladeVALIDATION_Blade_24.vtu|
|                                   |                     (102.311 MB/s)|
|SU2 ASCII restart                  |restart_flow_databladeVALIDATION_Blade_24.csv|
|                                   |                     (21.2847 MB/s)|
|CSV file                           |surface_flowdatabladeVALIDATION_Blade_24.csv|
|                                   |                     (20.4798 MB/s)|
+-----------------------------------------------------------------------+
+--------------------------------------+
|  Inner_Iter|    Cur_Time|    rms[Rho]|
+--------------------------------------+
|        3610|  0.0000e+00|   -6.925749|
|        3620|  0.0000e+00|   -6.957176|
|        3630|  0.0000e+00|   -6.977777|
|        3640|  0.0000e+00|   -6.923582|
|        3646|  0.0000e+00|   -7.001212|

----------------------------- Solver Exit -------------------------------
All convergence criteria satisfied.
+-----------------------------------------------------------------------+
|      Convergence Field     |     Value    |   Criterion  |  Converged |
+-----------------------------------------------------------------------+
|                    rms[Rho]|      -7.00121|          < -7|         Yes|
+-----------------------------------------------------------------------+
-------------------------------------------------------------------------
+-----------------------------------------------------------------------+
|        File Writing Summary       |              Filename             |
+-----------------------------------------------------------------------+
|SU2 binary restart                 |restart_flow_databladeVALIDATION_Blade_24.dat|
|                                   |                     (13182.1 MB/s)|
|Paraview                           |volume_flow_databladeVALIDATION_Blade_24.vtu|
|                                   |                      (757.98 MB/s)|
|Paraview surface                   |surface_flowdatabladeVALIDATION_Blade_24.vtu|
|                                   |                     (63.4504 MB/s)|
|SU2 ASCII restart                  |restart_flow_databladeVALIDATION_Blade_24.csv|
|                                   |                     (19.7872 MB/s)|
|CSV file                           |surface_flowdatabladeVALIDATION_Blade_24.csv|
|                                   |                     (20.3835 MB/s)|
+-----------------------------------------------------------------------+

--------------------------- Finalizing Solver ---------------------------
Deleted CNumerics container.
Deleted CIntegration container.
Deleted CSolver container.
Deleted CIteration container.
Deleted CInterface container.
Deleted CGeometry container.
Deleted CFreeFormDefBox class.
Deleted CSurfaceMovement class.
Deleted CVolumetricMovement class.
Deleted CConfig container.
Deleted nInst container.
Deleted COutput class.
-------------------------------------------------------------------------


-------------------------- Performance Summary --------------------------
Simulation totals:
   Wall-clock time (hrs):    0.154898 |            Core-hrs:     1.85877
                   Cores:          12 |          DOFs/point:           5
             Points/core:     5620.67 |   Ghost points/core:     175.917
 Ghost/Owned Point Ratio:   0.0312982 | 

Preprocessing phase:
       Preproc. Time (s):     1.13583 |   Preproc. Time (%):    0.203687

Compute phase:
        Compute Time (s):     553.759 |    Compute Time (%):     99.3054
         Iteration count:        3647 |         Avg. s/iter:     0.15184
     Core-s/iter/Mpoints:     26.1947 |           Mpoints/s:    0.458109

Output phase:
         Output Time (s):     2.73769 |     Output Time (%):    0.490949
            Output count:           1 |       Avg. s/output:     2.73769
 Restart Aggr. BW (MB/s):      785596 |           MB/s/core:     65466.3
-------------------------------------------------------------------------


------------------------- Exit Success (SU2_CFD) ------------------------

